                                   MODFLOW 6
                U.S. GEOLOGICAL SURVEY MODULAR HYDROLOGIC MODEL
                          GROUNDWATER FLOW MODEL (GWF)
                            VERSION 6.0.4 03/13/2019

   MODFLOW 6 compiled Mar 13 2019 12:37:09 with IFORT compiler (ver. 19.0.0)

This software has been approved for release by the U.S. Geological 
Survey (USGS). Although the software has been subjected to rigorous 
review, the USGS reserves the right to update the software as needed 
pursuant to further analysis and review. No warranty, expressed or 
implied, is made by the USGS or the U.S. Government as to the 
functionality of the software and related material nor shall the 
fact of release constitute any such warranty. Furthermore, the 
software is released on condition that neither the USGS nor the U.S. 
Government shall be held liable for any damages resulting from its 
authorized or unauthorized use. Also refer to the USGS Water 
Resources Software User Rights Notice for complete use, copyright, 
and distribution information.


MODFLOW was compiled using uniform precision.
Precision of REAL variables: 15


 OPENED flow.disu
 FILE TYPE:DISU6                  UNIT 1005   STATUS:OLD                 
 FORMAT:FORMATTED              ACCESS:SEQUENTIAL          
 ACTION:READ                


 OPENED flow.ic
 FILE TYPE:IC6                    UNIT 1006   STATUS:OLD                 
 FORMAT:FORMATTED              ACCESS:SEQUENTIAL          
 ACTION:READ                


 OPENED flow.chd
 FILE TYPE:CHD6                   UNIT 1007   STATUS:OLD                 
 FORMAT:FORMATTED              ACCESS:SEQUENTIAL          
 ACTION:READ                


 OPENED flow.npf
 FILE TYPE:NPF6                   UNIT 1008   STATUS:OLD                 
 FORMAT:FORMATTED              ACCESS:SEQUENTIAL          
 ACTION:READ                


 OPENED flow.gnc
 FILE TYPE:GNC6                   UNIT 1009   STATUS:OLD                 
 FORMAT:FORMATTED              ACCESS:SEQUENTIAL          
 ACTION:READ                


 OPENED flow.oc
 FILE TYPE:OC6                    UNIT 1010   STATUS:OLD                 
 FORMAT:FORMATTED              ACCESS:SEQUENTIAL          
 ACTION:READ                


 OPENED flow.wel
 FILE TYPE:WEL6                   UNIT 1011   STATUS:OLD                 
 FORMAT:FORMATTED              ACCESS:SEQUENTIAL          
 ACTION:READ                


 OPENED flow.sfr
 FILE TYPE:SFR6                   UNIT 1012   STATUS:OLD                 
 FORMAT:FORMATTED              ACCESS:SEQUENTIAL          
 ACTION:READ                


 DISU -- UNSTRUCTURED GRID DISCRETIZATION PACKAGE, VERSION 2 : 3/27/2014 - INPUT READ FROM UNIT 1005


 # Unstructured discretization file for MODFLOW-USG
 PROCESSING DISCRETIZATION OPTIONS
    MODEL LENGTH UNIT IS METERS
 END OF DISCRETIZATION OPTIONS
 PROCESSING DISCRETIZATION DIMENSIONS
    NODES = 121
    NJA   = 601
 END OF DISCRETIZATION OPTIONS
 PROCESSING GRIDDATA

                      TOP =   0.000000    

                      BOT =  -100.0000    

 OPENED flow.disu.area.dat
 FILE TYPE:OPEN/CLOSE   UNIT 1014   STATUS:OLD                 
 FORMAT:FORMATTED              ACCESS:SEQUENTIAL          
 ACTION:READ                

 END PROCESSING GRIDDATA
 PROCESSING CONNECTIONDATA

                      IHC = 1

 OPENED flow.disu.iac.dat
 FILE TYPE:OPEN/CLOSE   UNIT 1015   STATUS:OLD                 
 FORMAT:FORMATTED              ACCESS:SEQUENTIAL          
 ACTION:READ                


                      IAC
                3           4           4           4           4           4           3           4           5           7
                7           7           5           4           4           7           7           4           4           7
                7           4           4           7           7           4           4           5           7           7
                7           5           4           3           4           4           4           4           4           3
                5           5           5           5           5           5           5           5           5           5
                5           5           5           5           5           5           5           5           5           5
                5           5           5           5           5           5           5           5           5           5
                5           5           5           5           5           5           5           5           5           5
                5           5           5           5           5           5           5           5           5           5
                5           5           5           5           5           5           5           5           5           5
                5           5           5           5           5           5           5           5           5           5
                5           5           5           5           5           5           5           5           5           5
                5

 OPENED flow.disu.ja.dat
 FILE TYPE:OPEN/CLOSE   UNIT 1016   STATUS:OLD                 
 FORMAT:FORMATTED              ACCESS:SEQUENTIAL          
 ACTION:READ                


 OPENED flow.disu.cl12.dat
 FILE TYPE:OPEN/CLOSE   UNIT 1017   STATUS:OLD                 
 FORMAT:FORMATTED              ACCESS:SEQUENTIAL          
 ACTION:READ                


                     CL12
        0.000       50.00       50.00       0.000       50.00       50.00       50.00       0.000       50.00       50.00    
        50.00       0.000       50.00       50.00       50.00       0.000       50.00       50.00       50.00       0.000    
        50.00       50.00       50.00       0.000       50.00       50.00       0.000       50.00       50.00       50.00    
        0.000       50.00       50.00       50.00       50.00       0.000       50.00       50.00       50.00       50.00    
        50.00       50.00       0.000       50.00       50.00       50.00       50.00       50.00       50.00       0.000    
        50.00       50.00       50.00       50.00       50.00       50.00       0.000       50.00       50.00       50.00    
        50.00       0.000       50.00       50.00       50.00       0.000       50.00       50.00       50.00       0.000    
        50.00       50.00       50.00       50.00       50.00       50.00       0.000       50.00       50.00       50.00    
        50.00       50.00       50.00       0.000       50.00       50.00       50.00       0.000       50.00       50.00    
        50.00       0.000       50.00       50.00       50.00       50.00       50.00       50.00       0.000       50.00    
        50.00       50.00       50.00       50.00       50.00       0.000       50.00       50.00       50.00       0.000    
        50.00       50.00       50.00       0.000       50.00       50.00       50.00       50.00       50.00       50.00    
        0.000       50.00       50.00       50.00       50.00       50.00       50.00       0.000       50.00       50.00    
        50.00       0.000       50.00       50.00       50.00       0.000       50.00       50.00       50.00       50.00    
        0.000       50.00       50.00       50.00       50.00       50.00       50.00       0.000       50.00       50.00    
        50.00       50.00       50.00       50.00       0.000       50.00       50.00       50.00       50.00       50.00    
        50.00       0.000       50.00       50.00       50.00       50.00       0.000       50.00       50.00       50.00    
        0.000       50.00       50.00       0.000       50.00       50.00       50.00       0.000       50.00       50.00    
        50.00       0.000       50.00       50.00       50.00       0.000       50.00       50.00       50.00       0.000    
        50.00       50.00       50.00       0.000       50.00       50.00       0.000       16.67       16.67       16.67    
        16.67       0.000       16.67       16.67       16.67       16.67       0.000       16.67       16.67       16.67    
        16.67       0.000       16.67       16.67       16.67       16.67       0.000       16.67       16.67       16.67    
        16.67       0.000       16.67       16.67       16.67       16.67       0.000       16.67       16.67       16.67    
        16.67       0.000       16.67       16.67       16.67       16.67       0.000       16.67       16.67       16.67    
        16.67       0.000       16.67       16.67       16.67       16.67       0.000       16.67       16.67       16.67    
        16.67       0.000       16.67       16.67       16.67       16.67       0.000       16.67       16.67       16.67    
        16.67       0.000       16.67       16.67       16.67       16.67       0.000       16.67       16.67       16.67    
        16.67       0.000       16.67       16.67       16.67       16.67       0.000       16.67       16.67       16.67    
        16.67       0.000       16.67       16.67       16.67       16.67       0.000       16.67       16.67       16.67    
        16.67       0.000       16.67       16.67       16.67       16.67       0.000       16.67       16.67       16.67    
        16.67       0.000       16.67       16.67       16.67       16.67       0.000       16.67       16.67       16.67    
        16.67       0.000       16.67       16.67       16.67       16.67       0.000       16.67       16.67       16.67    
        16.67       0.000       16.67       16.67       16.67       16.67       0.000       16.67       16.67       16.67    
        16.67       0.000       16.67       16.67       16.67       16.67       0.000       16.67       16.67       16.67    
        16.67       0.000       16.67       16.67       16.67       16.67       0.000       16.67       16.67       16.67    
        16.67       0.000       16.67       16.67       16.67       16.67       0.000       16.67       16.67       16.67    
        16.67       0.000       16.67       16.67       16.67       16.67       0.000       16.67       16.67       16.67    
        16.67       0.000       16.67       16.67       16.67       16.67       0.000       16.67       16.67       16.67    
        16.67       0.000       16.67       16.67       16.67       16.67       0.000       16.67       16.67       16.67    
        16.67       0.000       16.67       16.67       16.67       16.67       0.000       16.67       16.67       16.67    
        16.67       0.000       16.67       16.67       16.67       16.67       0.000       16.67       16.67       16.67    
        16.67       0.000       16.67       16.67       16.67       16.67       0.000       16.67       16.67       16.67    
        16.67       0.000       16.67       16.67       16.67       16.67       0.000       16.67       16.67       16.67    
        16.67       0.000       16.67       16.67       16.67       16.67       0.000       16.67       16.67       16.67    
        16.67       0.000       16.67       16.67       16.67       16.67       0.000       16.67       16.67       16.67    
        16.67       0.000       16.67       16.67       16.67       16.67       0.000       16.67       16.67       16.67    
        16.67       0.000       16.67       16.67       16.67       16.67       0.000       16.67       16.67       16.67    
        16.67       0.000       16.67       16.67       16.67       16.67       0.000       16.67       16.67       16.67    
        16.67       0.000       16.67       16.67       16.67       16.67       0.000       16.67       16.67       16.67    
        16.67       0.000       16.67       16.67       16.67       16.67       0.000       16.67       16.67       16.67    
        16.67       0.000       16.67       16.67       16.67       16.67       0.000       16.67       16.67       16.67    
        16.67       0.000       16.67       16.67       16.67       16.67       0.000       16.67       16.67       16.67    
        16.67       0.000       16.67       16.67       16.67       16.67       0.000       16.67       16.67       16.67    
        16.67       0.000       16.67       16.67       16.67       16.67       0.000       16.67       16.67       16.67    
        16.67       0.000       16.67       16.67       16.67       16.67       0.000       16.67       16.67       16.67    
        16.67       0.000       16.67       16.67       16.67       16.67       0.000       16.67       16.67       16.67    
        16.67       0.000       16.67       16.67       16.67       16.67       0.000       16.67       16.67       16.67    
        16.67       0.000       16.67       16.67       16.67       16.67       0.000       16.67       16.67       16.67    
        16.67       0.000       16.67       16.67       16.67       16.67       0.000       16.67       16.67       16.67    
        16.67       0.000       16.67       16.67       16.67       16.67       0.000       16.67       16.67       16.67    
        16.67    

 OPENED flow.disu.hwva.dat
 FILE TYPE:OPEN/CLOSE   UNIT 1018   STATUS:OLD                 
 FORMAT:FORMATTED              ACCESS:SEQUENTIAL          
 ACTION:READ                


                     HWVA
        0.000       100.0       100.0       0.000       100.0       100.0       100.0       0.000       100.0       100.0    
        100.0       0.000       100.0       100.0       100.0       0.000       100.0       100.0       100.0       0.000    
        100.0       100.0       100.0       0.000       100.0       100.0       0.000       100.0       100.0       100.0    
        0.000       100.0       100.0       100.0       100.0       0.000       100.0       100.0       100.0       33.33    
        33.33       33.33       0.000       100.0       100.0       100.0       33.33       33.33       33.33       0.000    
        100.0       100.0       100.0       33.33       33.33       33.33       0.000       100.0       100.0       100.0    
        100.0       0.000       100.0       100.0       100.0       0.000       100.0       100.0       100.0       0.000    
        100.0       100.0       100.0       33.33       33.33       33.33       0.000       100.0       100.0       100.0    
        33.33       33.33       33.33       0.000       100.0       100.0       100.0       0.000       100.0       100.0    
        100.0       0.000       100.0       100.0       100.0       33.33       33.33       33.33       0.000       100.0    
        100.0       100.0       33.33       33.33       33.33       0.000       100.0       100.0       100.0       0.000    
        100.0       100.0       100.0       0.000       100.0       100.0       100.0       33.33       33.33       33.33    
        0.000       100.0       100.0       100.0       33.33       33.33       33.33       0.000       100.0       100.0    
        100.0       0.000       100.0       100.0       100.0       0.000       100.0       100.0       100.0       100.0    
        0.000       100.0       100.0       100.0       33.33       33.33       33.33       0.000       100.0       100.0    
        100.0       33.33       33.33       33.33       0.000       100.0       100.0       100.0       33.33       33.33    
        33.33       0.000       100.0       100.0       100.0       100.0       0.000       100.0       100.0       100.0    
        0.000       100.0       100.0       0.000       100.0       100.0       100.0       0.000       100.0       100.0    
        100.0       0.000       100.0       100.0       100.0       0.000       100.0       100.0       100.0       0.000    
        100.0       100.0       100.0       0.000       100.0       100.0       0.000       33.33       33.33       33.33    
        33.33       0.000       33.33       33.33       33.33       33.33       0.000       33.33       33.33       33.33    
        33.33       0.000       33.33       33.33       33.33       33.33       0.000       33.33       33.33       33.33    
        33.33       0.000       33.33       33.33       33.33       33.33       0.000       33.33       33.33       33.33    
        33.33       0.000       33.33       33.33       33.33       33.33       0.000       33.33       33.33       33.33    
        33.33       0.000       33.33       33.33       33.33       33.33       0.000       33.33       33.33       33.33    
        33.33       0.000       33.33       33.33       33.33       33.33       0.000       33.33       33.33       33.33    
        33.33       0.000       33.33       33.33       33.33       33.33       0.000       33.33       33.33       33.33    
        33.33       0.000       33.33       33.33       33.33       33.33       0.000       33.33       33.33       33.33    
        33.33       0.000       33.33       33.33       33.33       33.33       0.000       33.33       33.33       33.33    
        33.33       0.000       33.33       33.33       33.33       33.33       0.000       33.33       33.33       33.33    
        33.33       0.000       33.33       33.33       33.33       33.33       0.000       33.33       33.33       33.33    
        33.33       0.000       33.33       33.33       33.33       33.33       0.000       33.33       33.33       33.33    
        33.33       0.000       33.33       33.33       33.33       33.33       0.000       33.33       33.33       33.33    
        33.33       0.000       33.33       33.33       33.33       33.33       0.000       33.33       33.33       33.33    
        33.33       0.000       33.33       33.33       33.33       33.33       0.000       33.33       33.33       33.33    
        33.33       0.000       33.33       33.33       33.33       33.33       0.000       33.33       33.33       33.33    
        33.33       0.000       33.33       33.33       33.33       33.33       0.000       33.33       33.33       33.33    
        33.33       0.000       33.33       33.33       33.33       33.33       0.000       33.33       33.33       33.33    
        33.33       0.000       33.33       33.33       33.33       33.33       0.000       33.33       33.33       33.33    
        33.33       0.000       33.33       33.33       33.33       33.33       0.000       33.33       33.33       33.33    
        33.33       0.000       33.33       33.33       33.33       33.33       0.000       33.33       33.33       33.33    
        33.33       0.000       33.33       33.33       33.33       33.33       0.000       33.33       33.33       33.33    
        33.33       0.000       33.33       33.33       33.33       33.33       0.000       33.33       33.33       33.33    
        33.33       0.000       33.33       33.33       33.33       33.33       0.000       33.33       33.33       33.33    
        33.33       0.000       33.33       33.33       33.33       33.33       0.000       33.33       33.33       33.33    
        33.33       0.000       33.33       33.33       33.33       33.33       0.000       33.33       33.33       33.33    
        33.33       0.000       33.33       33.33       33.33       33.33       0.000       33.33       33.33       33.33    
        33.33       0.000       33.33       33.33       33.33       33.33       0.000       33.33       33.33       33.33    
        33.33       0.000       33.33       33.33       33.33       33.33       0.000       33.33       33.33       33.33    
        33.33       0.000       33.33       33.33       33.33       33.33       0.000       33.33       33.33       33.33    
        33.33       0.000       33.33       33.33       33.33       33.33       0.000       33.33       33.33       33.33    
        33.33       0.000       33.33       33.33       33.33       33.33       0.000       33.33       33.33       33.33    
        33.33       0.000       33.33       33.33       33.33       33.33       0.000       33.33       33.33       33.33    
        33.33       0.000       33.33       33.33       33.33       33.33       0.000       33.33       33.33       33.33    
        33.33       0.000       33.33       33.33       33.33       33.33       0.000       33.33       33.33       33.33    
        33.33       0.000       33.33       33.33       33.33       33.33       0.000       33.33       33.33       33.33    
        33.33       0.000       33.33       33.33       33.33       33.33       0.000       33.33       33.33       33.33    
        33.33       0.000       33.33       33.33       33.33       33.33       0.000       33.33       33.33       33.33    
        33.33       0.000       33.33       33.33       33.33       33.33       0.000       33.33       33.33       33.33    
        33.33       0.000       33.33       33.33       33.33       33.33       0.000       33.33       33.33       33.33    
        33.33    
 END PROCESSING CONNECTIONDATA
 ANGLDEGX NOT FOUND IN CONNECTIONDATA BLOCK. SOME CAPABILITIES MAY BE LIMITED.

 NPF -- NODE PROPERTY FLOW PACKAGE, VERSION 1, 3/30/2015 INPUT READ FROM UNIT 1008


 PROCESSING NPF OPTIONS
    CELL-BY-CELL FLOW INFORMATION WILL BE SAVED TO BINARY FILE WHENEVER ICBCFL IS NOT ZERO.
 END OF NPF OPTIONS
 PROCESSING GNC OPTIONS
    THE LIST OF GHOST-NODE CORRECTIONS WILL BE PRINTED.
    DELTAQGNC VALUES WILL BE PRINTED TO THE LIST FILE.
 END OF GNC OPTIONS
 PROCESSING GNC DIMENSIONS
    NUMGNC =      24
    NUMAPHAJ =       1
 END OF GNC DIMENSIONS
 PROCESSING GNCDATA
        10        41         9   0.333333    
        10        43        11   0.333333    
        11        44        10   0.333333    
        11        46        12   0.333333    
        12        47        11   0.333333    
        12        49        13   0.333333    
        16        41         9   0.333333    
        16        59        20   0.333333    
        17        49        13   0.333333    
        17        67        21   0.333333    
        20        68        16   0.333333    
        20        86        24   0.333333    
        21        76        17   0.333333    
        21        94        25   0.333333    
        24        95        20   0.333333    
        24       113        28   0.333333    
        25       103        21   0.333333    
        25       121        32   0.333333    
        29       113        28   0.333333    
        29       115        30   0.333333    
        30       116        29   0.333333    
        30       118        31   0.333333    
        31       119        30   0.333333    
        31       121        32   0.333333    
 END OF GNCDATA

 WEL   -- WEL PACKAGE, VERSION 8, 2/22/2014 INPUT READ FROM UNIT 1011

 PROCESSING WEL OPTIONS
    WEL BOUNDARIES HAVE NAMES IN LAST COLUMN.
 END OF WEL OPTIONS

 PROCESSING WEL DIMENSIONS
    MAXBOUND =       2
 END OF WEL DIMENSIONS

 CHD   -- CHD PACKAGE, VERSION 8, 2/22/2014 INPUT READ FROM UNIT 1007

 PROCESSING CHD OPTIONS
    LISTS OF CHD CELLS WILL BE PRINTED.
    CHD FLOWS WILL BE PRINTED TO LISTING FILE.
    FLOWS WILL BE SAVED TO BUDGET FILE SPECIFIED IN OUTPUT CONTROL
 END OF CHD OPTIONS

 PROCESSING CHD DIMENSIONS
    MAXBOUND =      14
 END OF CHD DIMENSIONS

 SFR   -- SFR PACKAGE, VERSION 8, 2/22/2014 INPUT READ FROM UNIT 1012

 PROCESSING SFR OPTIONS
    SFR FLOWS WILL BE PRINTED TO LISTING FILE.
    UNIT CONVERSION VALUE (   1.486000    ) SPECIFIED.
 END OF SFR OPTIONS
 #dimension block is required

 PROCESSING SFR DIMENSIONS
    NREACHES = 2
 END OF SFR DIMENSIONS

 IC -- INITIAL CONDITIONS PACKAGE, VERSION 8, 3/28/2015 INPUT READ FROM UNIT 1006
 # Basic package file for MODFLOW-USG, generated by Flopy.
 PROCESSING IC OPTIONS
 END OF IC OPTIONS
 PROCESSING GRIDDATA

     INITIAL HEAD
        1.000       0.000       0.000       0.000       0.000       0.000       0.000       1.000       0.000       0.000    
        0.000       0.000       0.000       0.000       1.000       0.000       0.000       0.000       1.000       0.000    
        0.000       0.000       1.000       0.000       0.000       0.000       1.000       0.000       0.000       0.000    
        0.000       0.000       0.000       1.000       0.000       0.000       0.000       0.000       0.000       0.000    
        0.000       0.000       0.000       0.000       0.000       0.000       0.000       0.000       0.000       0.000    
        0.000       0.000       0.000       0.000       0.000       0.000       0.000       0.000       0.000       0.000    
        0.000       0.000       0.000       0.000       0.000       0.000       0.000       0.000       0.000       0.000    
        0.000       0.000       0.000       0.000       0.000       0.000       0.000       0.000       0.000       0.000    
        0.000       0.000       0.000       0.000       0.000       0.000       0.000       0.000       0.000       0.000    
        0.000       0.000       0.000       0.000       0.000       0.000       0.000       0.000       0.000       0.000    
        0.000       0.000       0.000       0.000       0.000       0.000       0.000       0.000       0.000       0.000    
        0.000       0.000       0.000       0.000       0.000       0.000       0.000       0.000       0.000       0.000    
        0.000    
 END PROCESSING GRIDDATA
 #
 PROCESSING GRIDDATA
 #
 #apply these arrays for the entire simulation
 #
 #icelltype(nodes) is 0:confined, 1:convertible, 4:upstream?

                ICELLTYPE = 0
 #	
 #K(nodes) horizontal hydraulic conductivity

                        K =   1.000000    
 #
 #K33(nodes) vertical hydraulic conductivity

                      K33 =   1.000000    
 #
 #this will crash it  funkyarray
 #	constant
 K22 not provided.  Assuming K22 = K.
 END PROCESSING GRIDDATA
    BINARY GRID INFORMATION WILL BE WRITTEN TO:
      UNIT NUMBER: 1019
      FILE NAME: R:\Bravo\example\mf6.0.4\ForDPL\mf6_example\Unstructured\flow.disu.grb

 OPENED R:\Bravo\example\mf6.0.4\ForDPL\mf6_example\Unstructured\flow.disu.grb
 FILE TYPE:DATA(BINARY)   UNIT 1019   STATUS:REPLACE             
 FORMAT:UNFORMATTED            ACCESS:STREAM              
 ACTION:READWRITE           

      THE LAST TIME STEP WILL BE PRINTED
      THE LAST TIME STEP WILL BE PRINTED
 PROCESSING OC OPTIONS
    HEAD INFORMATION WILL BE WRITTEN TO:
      UNIT NUMBER: 1020
      FILE NAME: flow.hds

 OPENED flow.hds
 FILE TYPE:DATA(BINARY)   UNIT 1020   STATUS:REPLACE             
 FORMAT:UNFORMATTED            ACCESS:STREAM              
 ACTION:READWRITE           

    BUDGET INFORMATION WILL BE WRITTEN TO:
      UNIT NUMBER: 1021
      FILE NAME: flow.cbc

 OPENED flow.cbc
 FILE TYPE:DATA(BINARY)   UNIT 1021   STATUS:REPLACE             
 FORMAT:UNFORMATTED            ACCESS:STREAM              
 ACTION:READWRITE           

 END OF OC OPTIONS
 #rch  node length width         slope     sbot   bthick      hk rough nconn ustrf ndiv

 PROCESSING SFR PACKAGEDATA
 END OF SFR PACKAGEDATA

 PROCESSING SFR CONNECTIONDATA
 END OF SFR CONNECTIONDATA

 BEGIN READING OUTPUT CONTROL FOR STRESS PERIOD 1
      ALL TIME STEPS WILL BE PRINTED
      ALL TIME STEPS WILL BE SAVED
      ALL TIME STEPS WILL BE PRINTED
      ALL TIME STEPS WILL BE SAVED

 END READING OUTPUT CONTROL FOR STRESS PERIOD 1
 #        node      flux    name

 CHD NO.   NODE            HEAD         
 ---------------------------------------
      1      1       1.000    
      2      8       1.000    
      3     15       1.000    
      4     19       1.000    
      5     23       1.000    
      6     27       1.000    
      7     34       1.000    
      8      7       0.000    
      9     14       0.000    
     10     18       0.000    
     11     22       0.000    
     12     26       0.000    
     13     33       0.000    
     14     40       0.000    
 UBDSV1 SAVING     FLOW-JA-FACE ON UNIT   1021 AT TIME STEP      1, STRESS PERIOD      1
 UBDSV06 SAVING              CHD IN MODEL GWF_1            PACKAGE GWF_1           CONNECTED TO MODEL GWF_1            PACKAGE CHD-1            ON UNIT   1021 AT TIME STEP      1, STRESS PERIOD      1

              CHD (CHD-1)   PERIOD 1   STEP 1
 BOUNDARY        1  CELL                  (1)   RATE     18.8033    
 BOUNDARY        2  CELL                  (8)   RATE     18.7659    
 BOUNDARY        3  CELL                 (15)   RATE     19.2630    
 BOUNDARY        4  CELL                 (19)   RATE     21.5127    
 BOUNDARY        5  CELL                 (23)   RATE     19.3184    
 BOUNDARY        6  CELL                 (27)   RATE     18.7686    
 BOUNDARY        7  CELL                 (34)   RATE     18.4967    
 BOUNDARY        8  CELL                  (7)   RATE    -13.4056    
 BOUNDARY        9  CELL                 (14)   RATE    -14.2874    
 BOUNDARY       10  CELL                 (18)   RATE    -14.8547    
 BOUNDARY       11  CELL                 (22)   RATE    -15.0800    
 BOUNDARY       12  CELL                 (26)   RATE    -15.0485    
 BOUNDARY       13  CELL                 (33)   RATE    -14.9395    
 BOUNDARY       14  CELL                 (40)   RATE    -15.0132    

              SFR (SFR-1)   PERIOD 1   STEP 1
 BOUNDARY        1  CELL                  (4)   RATE    -4.92407    
 BOUNDARY        2  CELL                  (5)   RATE    -7.37553    



GHOST NODE CORRECTION RESULTS
   GNC NUM     NODEN     NODEM      DELTAQGNC         CONDNM
         1      (10)      (41)   -3.03823        49.9950    
         2      (10)      (43)    2.95956        49.9950    
         3      (11)      (44)   -2.95956        49.9950    
         4      (11)      (46)    2.72543        49.9950    
         5      (12)      (47)   -2.72543        49.9950    
         6      (12)      (49)    2.43343        49.9950    
         7      (16)      (41)  -8.285754E-02    49.9950    
         8      (16)      (59)   0.374905        49.9950    
         9      (17)      (49)   9.453172E-02    49.9950    
        10      (17)      (67)  -3.754934E-02    49.9950    
        11      (20)      (68)  -0.374905        49.9950    
        12      (20)      (86)  -0.365688        49.9950    
        13      (21)      (76)   3.754934E-02    49.9950    
        14      (21)      (94)   5.243839E-03    49.9950    
        15      (24)      (95)   0.365688        49.9950    
        16      (24)     (113)  -9.161569E-02    49.9950    
        17      (25)     (103)  -5.243839E-03    49.9950    
        18      (25)     (121)   1.817839E-02    49.9950    
        19      (29)     (113)   -3.08148        49.9950    
        20      (29)     (115)    3.22387        49.9950    
        21      (30)     (116)   -3.22387        49.9950    
        22      (30)     (118)    2.28301        49.9950    
        23      (31)     (119)   -2.28301        49.9950    
        24      (31)     (121)    2.45919        49.9950    
1
  HEAD IN LAYER   1 AT END OF TIME STEP   1 IN STRESS PERIOD    1
  ---------------------------------------------------------------------------

            1           2           3           4           5           6           7           8           9          10
           11          12          13          14          15          16          17          18          19          20
           21          22          23          24          25          26          27          28          29          30
           31          32          33          34          35          36          37          38          39          40
           41          42          43          44          45          46          47          48          49          50
           51          52          53          54          55          56          57          58          59          60
           61          62          63          64          65          66          67          68          69          70
           71          72          73          74          75          76          77          78          79          80
           81          82          83          84          85          86          87          88          89          90
           91          92          93          94          95          96          97          98          99         100
          101         102         103         104         105         106         107         108         109         110
          111         112         113         114         115         116         117         118         119         120
          121
 ........................................................................................................................
   1    1.000      0.8120      0.6236      0.4287      0.2593      0.1341       0.000       1.000      0.8123      0.6300    
       0.4524      0.2889      0.1429       0.000       1.000      0.8074      0.1485       0.000       1.000      0.7849    
       0.1508       0.000       1.000      0.8068      0.1505       0.000       1.000      0.8123      0.6274      0.4340    
       0.2970      0.1494       0.000       1.000      0.8150      0.6328      0.4559      0.3010      0.1501       0.000    
       0.6902      0.6314      0.5736      0.5164      0.4600      0.4051      0.3512      0.2983      0.2472      0.6891    
       0.6313      0.5743      0.5179      0.4623      0.4077      0.3540      0.3013      0.2498      0.6868      0.6304    
       0.5743      0.5186      0.4636      0.4093      0.3558      0.3032      0.2515      0.6842      0.6292      0.5739    
       0.5188      0.4641      0.4101      0.3568      0.3043      0.2525      0.6825      0.6284      0.5734      0.5185    
       0.4639      0.4101      0.3570      0.3047      0.2530      0.6836      0.6285      0.5730      0.5177      0.4631    
       0.4093      0.3565      0.3043      0.2528      0.6856      0.6288      0.5723      0.5163      0.4614      0.4077    
       0.3552      0.3034      0.2523      0.6875      0.6290      0.5710      0.5139      0.4583      0.4049      0.3530    
       0.3020      0.2513      0.6883      0.6285      0.5689      0.5101      0.4532      0.4007      0.3501      0.3002    
       0.2502    

 HEAD WILL BE SAVED ON UNIT 1020 AT END OF TIME STEP    1, STRESS PERIOD    1



 SFR (SFR-1) FLOWS   PERIOD      1   STEP        1
 ----------------------------------------------------------------------------------------------------------------------------------------------------
 REACH  REACH                 EXTERNAL      REACH       REACH       REACH       REACH       REACH       REACH     EXTERNAL      REACH      PERCENT   
  NO.   (NODE)                 INFLOW      INFLOW     RAINFALL     RUNOFF      LEAKAGE   EVAPORATION   OUTFLOW     OUTFLOW    IN - OUT   DIFFERENCE  
 ----------------------------------------------------------------------------------------------------------------------------------------------------
      1 (4)                    25.00       0.000       0.000       0.000       4.924       0.000      -29.92       0.000       0.000       0.000     
      2 (5)                    0.000       29.92       0.000       0.000       7.376       0.000       0.000      -37.30       0.000       0.000     
      3 (5)                    0.000       29.92       0.000       0.000       0.496       0.000       0.000      -37.30       0.000       0.000     
      4 (5)                    0.000       29.92       0.000       0.000       0.000       0.000       0.000      -37.30       0.000       0.000     
      5 (5)                    0.000       29.92       0.000       0.000       0.7528E-01  0.000       0.000      -37.30       0.000       0.000     

  SFR-1 BUDGET FOR ENTIRE MODEL AT END OF TIME STEP    1, STRESS PERIOD   1
  ------------------------------------------------------------------------------

     CUMULATIVE SFR-1      L**3       RATES FOR THIS TIME STEP      L**3/T
     ------------------                 ------------------------

           IN:                                      IN:
           ---                                      ---
          EXT-INFLOW =          25.0000            EXT-INFLOW =          25.0000
            RAINFALL =           0.0000              RAINFALL =           0.0000
              RUNOFF =           0.0000                RUNOFF =           0.0000
                 GWF =          12.2996                   GWF =          12.2996
         EVAPORATION =           0.0000           EVAPORATION =           0.0000
         EXT-OUTFLOW =           0.0000           EXT-OUTFLOW =           0.0000

            TOTAL IN =          37.2996              TOTAL IN =          37.2996

          OUT:                                     OUT:
          ----                                     ----
          EXT-INFLOW =           0.0000            EXT-INFLOW =           0.0000
            RAINFALL =           0.0000              RAINFALL =           0.0000
              RUNOFF =           0.0000                RUNOFF =           0.0000
                 GWF =           0.0000                   GWF =           0.0000
         EVAPORATION =           0.0000           EVAPORATION =           0.0000
         EXT-OUTFLOW =          37.2996           EXT-OUTFLOW =          37.2996

           TOTAL OUT =          37.2996             TOTAL OUT =          37.2996

            IN - OUT =           0.0000              IN - OUT =           0.0000

 PERCENT DISCREPANCY =           0.00     PERCENT DISCREPANCY =           0.00



  VOLUME BUDGET FOR ENTIRE MODEL AT END OF TIME STEP    1, STRESS PERIOD   1
  ---------------------------------------------------------------------------------------------------

     CUMULATIVE VOLUME      L**3       RATES FOR THIS TIME STEP      L**3/T          PACKAGE NAME    
     ------------------                 ------------------------                     ----------------

           IN:                                      IN:
           ---                                      ---
                 WEL =           0.0000                   WEL =           0.0000     WEL-1           
                 CHD =         134.9286                   CHD =         134.9286     CHD-1           
                 SFR =           0.0000                   SFR =           0.0000     SFR-1           

            TOTAL IN =         134.9286              TOTAL IN =         134.9286

          OUT:                                     OUT:
          ----                                     ----
                 WEL =          20.0000                   WEL =          20.0000     WEL-1           
                 CHD =         102.6290                   CHD =         102.6290     CHD-1           
                 SFR =          12.2996                   SFR =          12.2996     SFR-1           

           TOTAL OUT =         134.9286             TOTAL OUT =         134.9286

            IN - OUT =       1.7080E-07              IN - OUT =       1.7080E-07

 PERCENT DISCREPANCY =           0.00     PERCENT DISCREPANCY =           0.00




         TIME SUMMARY AT END OF TIME STEP    1 IN STRESS PERIOD    1
                    SECONDS     MINUTES      HOURS       DAYS        YEARS
                    -----------------------------------------------------------
   TIME STEP LENGTH  86400.      1440.0      24.000      1.0000     2.73785E-03
 STRESS PERIOD TIME  86400.      1440.0      24.000      1.0000     2.73785E-03
         TOTAL TIME  86400.      1440.0      24.000      1.0000     2.73785E-03
