                                   MODFLOW 6
                U.S. GEOLOGICAL SURVEY MODULAR HYDROLOGIC MODEL
                          GROUNDWATER FLOW MODEL (GWF)
                            VERSION 6.0.4 03/13/2019

   MODFLOW 6 compiled Mar 13 2019 12:37:09 with IFORT compiler (ver. 19.0.0)

This software has been approved for release by the U.S. Geological 
Survey (USGS). Although the software has been subjected to rigorous 
review, the USGS reserves the right to update the software as needed 
pursuant to further analysis and review. No warranty, expressed or 
implied, is made by the USGS or the U.S. Government as to the 
functionality of the software and related material nor shall the 
fact of release constitute any such warranty. Furthermore, the 
software is released on condition that neither the USGS nor the U.S. 
Government shall be held liable for any damages resulting from its 
authorized or unauthorized use. Also refer to the USGS Water 
Resources Software User Rights Notice for complete use, copyright, 
and distribution information.


MODFLOW was compiled using uniform precision.
Precision of REAL variables: 15


 OPENED test1tr.ic
 FILE TYPE:IC6                    UNIT 1005   STATUS:OLD                 
 FORMAT:FORMATTED              ACCESS:SEQUENTIAL          
 ACTION:READ                


 OPENED test1tr.npf
 FILE TYPE:NPF6                   UNIT 1006   STATUS:OLD                 
 FORMAT:FORMATTED              ACCESS:SEQUENTIAL          
 ACTION:READ                


 OPENED test1tr.sto
 FILE TYPE:STO6                   UNIT 1007   STATUS:OLD                 
 FORMAT:FORMATTED              ACCESS:SEQUENTIAL          
 ACTION:READ                


 OPENED test1tr.oc
 FILE TYPE:OC6                    UNIT 1008   STATUS:OLD                 
 FORMAT:FORMATTED              ACCESS:SEQUENTIAL          
 ACTION:READ                


 OPENED test1tr.dis
 FILE TYPE:DIS6                   UNIT 1009   STATUS:OLD                 
 FORMAT:FORMATTED              ACCESS:SEQUENTIAL          
 ACTION:READ                


 OPENED test1tr.wel
 FILE TYPE:WEL6                   UNIT 1010   STATUS:OLD                 
 FORMAT:FORMATTED              ACCESS:SEQUENTIAL          
 ACTION:READ                


 OPENED test1tr.evt
 FILE TYPE:EVT6                   UNIT 1011   STATUS:OLD                 
 FORMAT:FORMATTED              ACCESS:SEQUENTIAL          
 ACTION:READ                


 OPENED test1tr.rch
 FILE TYPE:RCH6                   UNIT 1012   STATUS:OLD                 
 FORMAT:FORMATTED              ACCESS:SEQUENTIAL          
 ACTION:READ                


 OPENED test1tr.ghb
 FILE TYPE:GHB6                   UNIT 1013   STATUS:OLD                 
 FORMAT:FORMATTED              ACCESS:SEQUENTIAL          
 ACTION:READ                


 OPENED test1tr.sfr
 FILE TYPE:SFR6                   UNIT 1014   STATUS:OLD                 
 FORMAT:FORMATTED              ACCESS:SEQUENTIAL          
 ACTION:READ                

 NAMEFILE OPTIONS:
    FLOWS WILL BE SAVED TO BUDGET FILE SPECIFIED IN OUTPUT CONTROL

 DIS -- STRUCTURED GRID DISCRETIZATION PACKAGE, VERSION 2 : 3/27/2014 - INPUT READ FROM UNIT 1009


 PROCESSING DISCRETIZATION OPTIONS
    MODEL LENGTH UNIT IS FEET
 END OF DISCRETIZATION OPTIONS
 PROCESSING DISCRETIZATION DIMENSIONS
    NLAY =       1
    NROW =      15
    NCOL =      10
 END OF DISCRETIZATION DIMENSIONS
 PROCESSING GRIDDATA

                     DELR =   5000.000    

                     DELC =   5000.000    

 TOP ELEVATION OF LAYER 1

                1           2           3           4           5           6           7           8           9          10
 ............................................................................................................................
   1    1105.       1105.       0.000       0.000       0.000       0.000       0.000       0.000       0.000       0.000    
   2    1105.       1095.       1105.       0.000       0.000       1100.       1100.       1110.       0.000       0.000    
   3    0.000       1100.       1085.       1080.       1078.       1076.       1073.       1090.       0.000       0.000    
   4    1110.       1100.       1090.       1085.       1076.       1080.       1080.       1070.       1100.       0.000    
   5    1110.       1100.       1085.       1080.       1078.       1074.       1077.       1066.       1075.       1080.    
   6    1105.       1095.       1080.       1077.       1073.       1069.       1070.       1063.       1085.       1095.    
   7    1105.       1090.       1075.       1072.       1070.       1065.       1065.       1069.       1090.       0.000    
   8    0.000       1080.       1070.       1068.       1063.       1060.       1063.       1067.       1090.       0.000    
   9    0.000       1075.       1065.       1062.       1058.       1052.       1055.       1065.       1090.       0.000    
  10    0.000       1070.       1060.       1055.       1046.       1046.       1044.       1060.       1088.       1100.    
  11    0.000       1055.       1050.       1045.       1041.       1042.       1040.       1050.       1075.       0.000    
  12    1027.       1028.       1028.       1032.       1032.       1033.       1032.       1040.       1060.       0.000    
  13    997.0       1004.       1008.       1014.       1020.       1027.       1032.       1038.       1050.       0.000    
  14    0.000       1030.       1040.       1045.       1050.       1050.       1050.       1050.       1044.       0.000    
  15    0.000       0.000       1080.       1080.       1080.       1080.       0.000       0.000       0.000       0.000    

   MODEL LAYER BOTTOM EL. FOR LAYER 1

                1           2           3           4           5           6           7           8           9          10
 ............................................................................................................................
   1    1000.       1000.       0.000       0.000       0.000       0.000       0.000       0.000       0.000       0.000    
   2    1000.       900.0       900.0       0.000       0.000       950.0       950.0       950.0       0.000       0.000    
   3    0.000       850.0       670.0       680.0       680.0       770.0       770.0       890.0       0.000       0.000    
   4    925.0       850.0       650.0       650.0       650.0       680.0       740.0       850.0       950.0       0.000    
   5    925.0       800.0       650.0       600.0       600.0       600.0       650.0       720.0       850.0       950.0    
   6    925.0       800.0       650.0       600.0       550.0       600.0       650.0       720.0       850.0       970.0    
   7    925.0       800.0       650.0       600.0       550.0       600.0       650.0       720.0       950.0       0.000    
   8    0.000       850.0       700.0       650.0       570.0       600.0       700.0       850.0       950.0       0.000    
   9    0.000       850.0       700.0       650.0       540.0       580.0       700.0       850.0       950.0       0.000    
  10    0.000       850.0       700.0       630.0       530.0       580.0       650.0       800.0       900.0       950.0    
  11    0.000       850.0       700.0       620.0       580.0       620.0       700.0       800.0       900.0       0.000    
  12    900.0       830.0       710.0       640.0       600.0       650.0       700.0       800.0       900.0       0.000    
  13    900.0       810.0       750.0       700.0       650.0       700.0       750.0       800.0       900.0       0.000    
  14    0.000       950.0       850.0       850.0       850.0       850.0       850.0       850.0       850.0       0.000    
  15    0.000       0.000       950.0       950.0       950.0       950.0       0.000       0.000       0.000       0.000    

                  IDOMAIN FOR LAYER 1

                1           2           3           4           5           6           7           8           9          10
 ............................................................................................................................
   1            1           1           0           0           0           0           0           0           0           0
   2            1           1           1           0           0           1           1           1           0           0
   3            0           1           1           1           1           1           1           1           0           0
   4            1           1           1           1           1           1           1           1           1           0
   5            1           1           1           1           1           1           1           1           1           1
   6            1           1           1           1           1           1           1           1           1           1
   7            1           1           1           1           1           1           1           1           1           0
   8            0           1           1           1           1           1           1           1           1           0
   9            0           1           1           1           1           1           1           1           1           0
  10            0           1           1           1           1           1           1           1           1           1
  11            0           1           1           1           1           1           1           1           1           0
  12            1           1           1           1           1           1           1           1           1           0
  13            1           1           1           1           1           1           1           1           1           0
  14            0           1           1           1           1           1           1           1           1           0
  15            0           0           1           1           1           1           0           0           0           0
 END PROCESSING GRIDDATA

 THE SPECIFIED IDOMAIN RESULTS IN A REDUCED NUMBER OF CELLS.
 NUMBER OF USER NODES:     150
 NUMBER OF NODES IN SOLUTION:     116



 NPF -- NODE PROPERTY FLOW PACKAGE, VERSION 1, 3/30/2015 INPUT READ FROM UNIT 1006


 PROCESSING NPF OPTIONS
 END OF NPF OPTIONS

 WEL   -- WEL PACKAGE, VERSION 8, 2/22/2014 INPUT READ FROM UNIT 1010

 PROCESSING WEL OPTIONS
    WEL BOUNDARIES HAVE NAMES IN LAST COLUMN.
 END OF WEL OPTIONS

 PROCESSING WEL DIMENSIONS
    MAXBOUND =      10
 END OF WEL DIMENSIONS

 GHB   -- GHB PACKAGE, VERSION 8, 2/22/2014 INPUT READ FROM UNIT 1013
 #option block.  Note -- no comments allowed on auxiliary line

 PROCESSING GHB OPTIONS
 END OF GHB OPTIONS

 PROCESSING GHB DIMENSIONS
    MAXBOUND =       2
 END OF GHB DIMENSIONS

 RCH   -- RCH PACKAGE, VERSION 8, 2/22/2014 INPUT READ FROM UNIT 1012

 PROCESSING RCH OPTIONS
    RECHARGE INPUT WILL BE READ AS ARRAY(S).
 END OF RCH OPTIONS

 EVT   -- EVT PACKAGE, VERSION 8, 2/22/2014 INPUT READ FROM UNIT 1011

 PROCESSING EVT OPTIONS
    EVAPOTRANSPIRATION INPUT WILL BE READ AS ARRAYS.

 OPENED test1tr.evt.obs
 FILE TYPE:OBS   UNIT 1016   STATUS:OLD                 
 FORMAT:FORMATTED              ACCESS:SEQUENTIAL          
 ACTION:READ                

 END OF EVT OPTIONS

 SFR   -- SFR PACKAGE, VERSION 8, 2/22/2014 INPUT READ FROM UNIT 1014

 PROCESSING SFR OPTIONS
    SFR FLOWS WILL BE PRINTED TO LISTING FILE.
    UNIT CONVERSION VALUE (   1.486000    ) SPECIFIED.

 OPENED test1tr.sfr.obs
 FILE TYPE:OBS   UNIT 1017   STATUS:OLD                 
 FORMAT:FORMATTED              ACCESS:SEQUENTIAL          
 ACTION:READ                


 OPENED test1tr.sfr.stage.bin
 FILE TYPE:DATA(BINARY)   UNIT 1018   STATUS:REPLACE             
 FORMAT:UNFORMATTED            ACCESS:STREAM              
 ACTION:READWRITE           

    SFR  STAGE  WILL BE SAVED TO FILE: test1tr.sfr.stage.bin                                                                                                                                                                                                                                                                                                                                                                                                                                                                                                                                                                                                                                                                                                                                                                                                                                                                                                                                                                                                                   
    OPENED ON UNIT:    1018

 OPENED test1tr.sfr.cbc
 FILE TYPE:DATA(BINARY)   UNIT 1019   STATUS:REPLACE             
 FORMAT:UNFORMATTED            ACCESS:STREAM              
 ACTION:READWRITE           

    SFR  BUDGET  WILL BE SAVED TO FILE: test1tr.sfr.cbc                                                                                                                                                                                                                                                                                                                                                                                                                                                                                                                                                                                                                                                                                                                                                                                                                                                                                                                                                                                                                         
    OPENED ON UNIT:    1019
 END OF SFR OPTIONS
 #dimension block is required

 PROCESSING SFR DIMENSIONS
    NREACHES = 36
 END OF SFR DIMENSIONS

 IC -- INITIAL CONDITIONS PACKAGE, VERSION 8, 3/28/2015 INPUT READ FROM UNIT 1005
 PROCESSING IC OPTIONS
 END OF IC OPTIONS
 PROCESSING GRIDDATA

     INITIAL HEAD FOR LAYER 1

                1           2           3           4           5           6           7           8           9          10
 ............................................................................................................................
   1    1093.       1089.       6999.       6999.       6999.       6999.       6999.       6999.       6999.       6999.    
   2    1090.       1087.       1081.       6999.       6999.       1072.       1072.       1071.       6999.       6999.    
   3    6999.       1079.       1078.       1074.       1072.       1071.       1069.       1068.       6999.       6999.    
   4    1069.       1071.       1070.       1067.       1066.       1064.       1064.       1066.       1066.       6999.    
   5    1065.       1064.       1063.       1062.       1061.       1061.       1060.       1062.       1066.       1068.    
   6    1060.       1058.       1057.       1056.       1056.       1057.       1057.       1059.       1062.       1066.    
   7    1056.       1053.       1052.       1051.       1051.       1052.       1053.       1056.       1056.       6999.    
   8    6999.       1046.       1046.       1046.       1046.       1046.       1048.       1050.       1050.       6999.    
   9    6999.       1039.       1039.       1040.       1040.       1041.       1042.       1043.       1044.       6999.    
  10    6999.       1031.       1032.       1033.       1034.       1035.       1036.       1038.       1039.       1042.    
  11    6999.       1021.       1023.       1027.       1029.       1030.       1032.       1034.       1036.       6999.    
  12    1001.       1009.       1014.       1020.       1023.       1026.       1029.       1030.       1034.       6999.    
  13    994.5       1000.       1007.       1013.       1019.       1024.       1029.       1034.       1036.       6999.    
  14    6999.       1004.       1009.       1014.       1019.       1024.       1030.       1035.       1039.       6999.    
  15    6999.       6999.       1012.       1015.       1019.       1022.       6999.       6999.       6999.       6999.    
 END PROCESSING GRIDDATA
 #
 PROCESSING GRIDDATA

                ICELLTYPE = 1 FOR LAYER 1

                        K FOR LAYER 1

                1           2           3           4           5           6           7           8           9          10
 ............................................................................................................................
   1   2.0000E-03  2.0000E-03   0.000       0.000       0.000       0.000       0.000       0.000       0.000       0.000    
   2   4.0000E-04  2.0000E-03  2.0000E-03   0.000       0.000      4.0000E-04  4.0000E-04  4.0000E-04   0.000       0.000    
   3    0.000      4.0000E-04  2.0000E-03  2.0000E-03  4.0000E-04  4.0000E-04  4.0000E-04  4.0000E-04   0.000       0.000    
   4   4.0000E-04  4.0000E-04  4.0000E-04  2.0000E-03  2.0000E-03  2.0000E-03  4.0000E-04  4.0000E-04  4.0000E-04   0.000    
   5   4.0000E-04  4.0000E-04  4.0000E-04  2.0000E-03  2.0000E-03  2.0000E-03  2.0000E-03  2.0000E-03  2.0000E-03  2.0000E-03
   6   4.0000E-04  4.0000E-04  4.0000E-04  2.0000E-03  2.0000E-03  2.0000E-03  2.0000E-03  2.0000E-03  4.0000E-04  4.0000E-04
   7   4.0000E-04  4.0000E-04  4.0000E-04  2.0000E-03  2.0000E-03  2.0000E-03  2.0000E-03  2.0000E-03  4.0000E-04   0.000    
   8    0.000      4.0000E-04  4.0000E-04  2.0000E-03  2.0000E-03  2.0000E-03  2.0000E-03  4.0000E-04  4.0000E-04   0.000    
   9    0.000      4.0000E-04  4.0000E-04  2.0000E-03  2.0000E-03  2.0000E-03  2.0000E-03  4.0000E-04  4.0000E-04   0.000    
  10    0.000      4.0000E-04  4.0000E-04  2.0000E-03  2.0000E-03  2.0000E-03  2.0000E-03  4.0000E-04  4.0000E-04  4.0000E-04
  11    0.000      4.0000E-04  4.0000E-04  2.0000E-03  2.0000E-03  2.0000E-03  2.0000E-03  4.0000E-04  4.0000E-04   0.000    
  12   4.0000E-04  4.0000E-04  2.0000E-03  2.0000E-03  2.0000E-03  2.0000E-03  2.0000E-03  4.0000E-04  4.0000E-04   0.000    
  13   2.0000E-03  2.0000E-03  2.0000E-03  2.0000E-03  2.0000E-03  2.0000E-03  2.0000E-03  2.0000E-03  2.0000E-03   0.000    
  14    0.000      4.0000E-04  4.0000E-04  4.0000E-04  4.0000E-04  4.0000E-04  4.0000E-04  4.0000E-04  2.0000E-03   0.000    
  15    0.000       0.000      4.0000E-04  4.0000E-04  4.0000E-04  4.0000E-04   0.000       0.000       0.000       0.000    

                      K33 =   1.000000     FOR LAYER 1
 K22 not provided.  Assuming K22 = K.
 END PROCESSING GRIDDATA

 STO -- STORAGE PACKAGE, VERSION 1, 5/19/2014 INPUT READ FROM UNIT 1007


 #option block.  Note -- no comments allowed on auxiliary line
 PROCESSING STORAGE OPTIONS
 END OF STORAGE OPTIONS
 PROCESSING GRIDDATA

                 ICONVERT = 1 FOR LAYER 1

         SPECIFIC STORAGE =  0.1000000E-05 FOR LAYER 1

           SPECIFIC YIELD FOR LAYER 1

                1           2           3           4           5           6           7           8           9          10
 ............................................................................................................................
   1   0.2000      0.2000       0.000       0.000       0.000       0.000       0.000       0.000       0.000       0.000    
   2   0.1000      0.2000      0.2000       0.000       0.000      0.1000      0.1000      0.1000       0.000       0.000    
   3    0.000      0.1000      0.2000      0.2000      0.1000      0.1000      0.1000      0.1000       0.000       0.000    
   4   0.1000      0.1000      0.1000      0.2000      0.2000      0.2000      0.1000      0.1000      0.1000       0.000    
   5   0.1000      0.1000      0.1000      0.2000      0.2000      0.2000      0.2000      0.2000      0.2000      0.2000    
   6   0.1000      0.1000      0.1000      0.2000      0.2000      0.2000      0.2000      0.2000      0.1000      0.1000    
   7   0.1000      0.1000      0.1000      0.2000      0.2000      0.2000      0.2000      0.2000      0.1000       0.000    
   8    0.000      0.1000      0.1000      0.2000      0.2000      0.2000      0.2000      0.1000      0.1000       0.000    
   9    0.000      0.1000      0.1000      0.2000      0.2000      0.2000      0.2000      0.1000      0.1000       0.000    
  10    0.000      0.1000      0.1000      0.2000      0.2000      0.2000      0.2000      0.1000      0.1000      0.1000    
  11    0.000      0.1000      0.1000      0.2000      0.2000      0.2000      0.2000      0.1000      0.1000       0.000    
  12   0.1000      0.1000      0.2000      0.2000      0.2000      0.2000      0.2000      0.1000      0.1000       0.000    
  13   0.2000      0.2000      0.2000      0.2000      0.2000      0.2000      0.2000      0.2000      0.2000       0.000    
  14    0.000      0.1000      0.1000      0.1000      0.1000      0.1000      0.1000      0.1000      0.2000       0.000    
  15    0.000       0.000      0.1000      0.1000      0.1000      0.1000       0.000       0.000       0.000       0.000    
 END PROCESSING GRIDDATA
    BINARY GRID INFORMATION WILL BE WRITTEN TO:
      UNIT NUMBER: 1020
      FILE NAME: R:\Bravo\example\mf6.0.4\ForDPL\mf6_example\ExampleModel_1\test1tr.dis.grb

 OPENED R:\Bravo\example\mf6.0.4\ForDPL\mf6_example\ExampleModel_1\test1tr.dis.grb
 FILE TYPE:DATA(BINARY)   UNIT 1020   STATUS:REPLACE             
 FORMAT:UNFORMATTED            ACCESS:STREAM              
 ACTION:READWRITE           

      THE LAST TIME STEP WILL BE PRINTED
      THE LAST TIME STEP WILL BE PRINTED
 PROCESSING OC OPTIONS
    HEAD INFORMATION WILL BE WRITTEN TO:
      UNIT NUMBER: 1021
      FILE NAME: test1tr.hds

 OPENED test1tr.hds
 FILE TYPE:DATA(BINARY)   UNIT 1021   STATUS:REPLACE             
 FORMAT:UNFORMATTED            ACCESS:STREAM              
 ACTION:READWRITE           

    BUDGET INFORMATION WILL BE WRITTEN TO:
      UNIT NUMBER: 1022
      FILE NAME: test1tr.cbc

 OPENED test1tr.cbc
 FILE TYPE:DATA(BINARY)   UNIT 1022   STATUS:REPLACE             
 FORMAT:UNFORMATTED            ACCESS:STREAM              
 ACTION:READWRITE           

 END OF OC OPTIONS

The observation utility is active for "EVT-1"

Processing observation options:

The PRINT_INPUT option has been specified.


Observations read from file "test1tr.evt.obs":
Name                                      Type                             Time         Location data
----------------------------------------  -------------------------------  -----------  --------------------------
ET1-1                                     Continuous EVT                   All times    "1  1  1"
ET1-2                                     Continuous EVT                   All times    "1  1  2"
ET2-1                                     Continuous EVT                   All times    "1  2  1"
ET2-2                                     Continuous EVT                   All times    "1  2  2"
ET2-3                                     Continuous EVT                   All times    "1  2  3"
ET2-6                                     Continuous EVT                   All times    "1  2  6"
ET2-7                                     Continuous EVT                   All times    "1  2  7"
ET2-8                                     Continuous EVT                   All times    "1  2  8"
ET3-2                                     Continuous EVT                   All times    "1  3  2"
ET3-3                                     Continuous EVT                   All times    "1  3  3"
ET3-4                                     Continuous EVT                   All times    "1  3  4"
ET3-5                                     Continuous EVT                   All times    "1  3  5"
ET3-6                                     Continuous EVT                   All times    "1  3  6"
ET3-7                                     Continuous EVT                   All times    "1  3  7"
ET3-8                                     Continuous EVT                   All times    "1  3  8"
ET4-1                                     Continuous EVT                   All times    "1  4  1"
ET4-2                                     Continuous EVT                   All times    "1  4  2"
ET4-3                                     Continuous EVT                   All times    "1  4  3"
ET4-4                                     Continuous EVT                   All times    "1  4  4"
ET4-5                                     Continuous EVT                   All times    "1  4  5"
ET4-6                                     Continuous EVT                   All times    "1  4  6"
ET4-7                                     Continuous EVT                   All times    "1  4  7"
ET4-8                                     Continuous EVT                   All times    "1  4  8"
ET4-9                                     Continuous EVT                   All times    "1  4  9"
ET5-1                                     Continuous EVT                   All times    "1  5  1"
ET5-2                                     Continuous EVT                   All times    "1  5  2"
ET5-3                                     Continuous EVT                   All times    "1  5  3"
ET5-4                                     Continuous EVT                   All times    "1  5  4"
ET5-5                                     Continuous EVT                   All times    "1  5  5"
ET5-6                                     Continuous EVT                   All times    "1  5  6"
ET5-7                                     Continuous EVT                   All times    "1  5  7"
ET5-8                                     Continuous EVT                   All times    "1  5  8"
ET5-9                                     Continuous EVT                   All times    "1  5  9"
ET5-10                                    Continuous EVT                   All times    "1  5 10"
ET6-1                                     Continuous EVT                   All times    "1  6  1"
ET6-2                                     Continuous EVT                   All times    "1  6  2"
ET6-3                                     Continuous EVT                   All times    "1  6  3"
ET6-4                                     Continuous EVT                   All times    "1  6  4"
ET6-5                                     Continuous EVT                   All times    "1  6  5"
ET6-6                                     Continuous EVT                   All times    "1  6  6"
ET6-7                                     Continuous EVT                   All times    "1  6  7"
ET6-8                                     Continuous EVT                   All times    "1  6  8"
ET6-9                                     Continuous EVT                   All times    "1  6  9"
ET6-10                                    Continuous EVT                   All times    "1  6 10"
ET7-1                                     Continuous EVT                   All times    "1  7  1"
ET7-2                                     Continuous EVT                   All times    "1  7  2"
ET7-3                                     Continuous EVT                   All times    "1  7  3"
ET7-4                                     Continuous EVT                   All times    "1  7  4"
ET7-5                                     Continuous EVT                   All times    "1  7  5"
ET7-6                                     Continuous EVT                   All times    "1  7  6"
ET7-7                                     Continuous EVT                   All times    "1  7  7"
ET7-8                                     Continuous EVT                   All times    "1  7  8"
ET7-9                                     Continuous EVT                   All times    "1  7  9"
ET8-2                                     Continuous EVT                   All times    "1  8  2"
ET8-3                                     Continuous EVT                   All times    "1  8  3"
ET8-4                                     Continuous EVT                   All times    "1  8  4"
ET8-5                                     Continuous EVT                   All times    "1  8  5"
ET8-6                                     Continuous EVT                   All times    "1  8  6"
ET8-7                                     Continuous EVT                   All times    "1  8  7"
ET8-8                                     Continuous EVT                   All times    "1  8  8"
ET8-9                                     Continuous EVT                   All times    "1  8  9"
ET9-2                                     Continuous EVT                   All times    "1  9  2"
ET9-3                                     Continuous EVT                   All times    "1  9  3"
ET9-4                                     Continuous EVT                   All times    "1  9  4"
ET9-5                                     Continuous EVT                   All times    "1  9  5"
ET9-6                                     Continuous EVT                   All times    "1  9  6"
ET9-7                                     Continuous EVT                   All times    "1  9  7"
ET9-8                                     Continuous EVT                   All times    "1  9  8"
ET9-9                                     Continuous EVT                   All times    "1  9  9"
ET10-2                                    Continuous EVT                   All times    "1 10  2"
ET10-3                                    Continuous EVT                   All times    "1 10  3"
ET10-4                                    Continuous EVT                   All times    "1 10  4"
ET10-5                                    Continuous EVT                   All times    "1 10  5"
ET10-6                                    Continuous EVT                   All times    "1 10  6"
ET10-7                                    Continuous EVT                   All times    "1 10  7"
ET10-8                                    Continuous EVT                   All times    "1 10  8"
ET10-9                                    Continuous EVT                   All times    "1 10  9"
ET10-10                                   Continuous EVT                   All times    "1 10 10"
ET11-2                                    Continuous EVT                   All times    "1 11  2"
ET11-3                                    Continuous EVT                   All times    "1 11  3"
ET11-4                                    Continuous EVT                   All times    "1 11  4"
ET11-5                                    Continuous EVT                   All times    "1 11  5"
ET11-6                                    Continuous EVT                   All times    "1 11  6"
ET11-7                                    Continuous EVT                   All times    "1 11  7"
ET11-8                                    Continuous EVT                   All times    "1 11  8"
ET11-9                                    Continuous EVT                   All times    "1 11  9"
ET12-1                                    Continuous EVT                   All times    "1 12  1"
ET12-2                                    Continuous EVT                   All times    "1 12  2"
ET12-3                                    Continuous EVT                   All times    "1 12  3"
ET12-4                                    Continuous EVT                   All times    "1 12  4"
ET12-5                                    Continuous EVT                   All times    "1 12  5"
ET12-6                                    Continuous EVT                   All times    "1 12  6"
ET12-7                                    Continuous EVT                   All times    "1 12  7"
ET12-8                                    Continuous EVT                   All times    "1 12  8"
ET12-9                                    Continuous EVT                   All times    "1 12  9"
ET13-1                                    Continuous EVT                   All times    "1 13  1"
ET13-2                                    Continuous EVT                   All times    "1 13  2"
ET13-3                                    Continuous EVT                   All times    "1 13  3"
ET13-4                                    Continuous EVT                   All times    "1 13  4"
ET13-5                                    Continuous EVT                   All times    "1 13  5"
ET13-6                                    Continuous EVT                   All times    "1 13  6"
ET13-7                                    Continuous EVT                   All times    "1 13  7"
ET13-8                                    Continuous EVT                   All times    "1 13  8"
ET13-9                                    Continuous EVT                   All times    "1 13  9"
ET14-2                                    Continuous EVT                   All times    "1 14  2"
ET14-3                                    Continuous EVT                   All times    "1 14  3"
ET14-4                                    Continuous EVT                   All times    "1 14  4"
ET14-5                                    Continuous EVT                   All times    "1 14  5"
ET14-6                                    Continuous EVT                   All times    "1 14  6"
ET14-7                                    Continuous EVT                   All times    "1 14  7"
ET14-8                                    Continuous EVT                   All times    "1 14  8"
ET14-9                                    Continuous EVT                   All times    "1 14  9"
ET15-3                                    Continuous EVT                   All times    "1 15  3"
ET15-4                                    Continuous EVT                   All times    "1 15  4"
ET15-5                                    Continuous EVT                   All times    "1 15  5"
ET15-6                                    Continuous EVT                   All times    "1 15  6"

The observation utility is active for "SFR-1"

Processing observation options:

Text output number of digits of precision set to: 10
The PRINT_INPUT option has been specified.


Observations read from file "test1tr.sfr.obs":
Name                                      Type                             Time         Location data
----------------------------------------  -------------------------------  -----------  --------------------------
GAGE1STAGE                                Continuous STAGE                 All times    "4"
GAGE2STAGE                                Continuous STAGE                 All times    "7"
GAGE3STAGE                                Continuous STAGE                 All times    "14"
GAGE4STAGE                                Continuous STAGE                 All times    "18"
GAGE5STAGE                                Continuous STAGE                 All times    "22"
GAGE6STAGE                                Continuous STAGE                 All times    "27"
GAGE7STAGE                                Continuous STAGE                 All times    "30"
GAGE8STAGE                                Continuous STAGE                 All times    "36"
GAGE9STAGE                                Continuous STAGE                 All times    "10"
QAQ04                                     Continuous SFR                   All times    "4"
QAQ07                                     Continuous SFR                   All times    "7"
QAQ14                                     Continuous SFR                   All times    "14"
QAQ18                                     Continuous SFR                   All times    "18"
QAQ22                                     Continuous SFR                   All times    "22"
QAQ27                                     Continuous SFR                   All times    "27"
QAQ30                                     Continuous SFR                   All times    "30"
QAQ36                                     Continuous SFR                   All times    "36"
QAQ10                                     Continuous SFR                   All times    "10"
USINF10                                   Continuous UPSTREAM-FLOW         All times    "10"
INF10                                     Continuous INFLOW                All times    "10"
OUT10                                     Continuous OUTFLOW               All times    "10"
DS10                                      Continuous DOWNSTREAM-FLOW       All times    "10"
USINF36                                   Continuous UPSTREAM-FLOW         All times    "36"
INF36                                     Continuous INFLOW                All times    "36"
OUT36                                     Continuous OUTFLOW               All times    "36"
EXTOUT36                                  Continuous EXT-OUTFLOW           All times    "36"
DS36                                      Continuous DOWNSTREAM-FLOW       All times    "36"
 #rch    k    i    j   length width          slope     sbot bthick      hk rough nconn ustrf ndiv

 PROCESSING SFR PACKAGEDATA
 END OF SFR PACKAGEDATA

 PROCESSING SFR CONNECTIONDATA
 END OF SFR CONNECTIONDATA
 # ireach idivno ireach2 cprior

 PROCESSING SFR DIVERSIONS
 END OF SFR DIVERSIONS

 BEGIN READING OUTPUT CONTROL FOR STRESS PERIOD 1
      THE FOLLOWING FREQUENCY WILL BE PRINTED: 5
      THE FOLLOWING FREQUENCY WILL BE SAVED: 5
      THE FOLLOWING FREQUENCY WILL BE PRINTED: 5
      THE FOLLOWING FREQUENCY WILL BE SAVED: 5

 END READING OUTPUT CONTROL FOR STRESS PERIOD 1


 STRESS PERIOD 1 IS TRANSIENT

 #        k         i         j      flux    name

  EVAPOTRANSPIRATION RATE =  0.9500000E-07

         EXTINCTION DEPTH =   15.00000    
 UBDSV1 SAVING           STO-SS ON UNIT   1022 AT TIME STEP      5, STRESS PERIOD      1
 UBDSV1 SAVING           STO-SY ON UNIT   1022 AT TIME STEP      5, STRESS PERIOD      1
 UBDSV1 SAVING     FLOW-JA-FACE ON UNIT   1022 AT TIME STEP      5, STRESS PERIOD      1
 UBDSV06 SAVING              WEL IN MODEL GWF_1            PACKAGE GWF_1           CONNECTED TO MODEL GWF_1            PACKAGE WEL-1            ON UNIT   1022 AT TIME STEP      5, STRESS PERIOD      1
 UBDSV06 SAVING              GHB IN MODEL GWF_1            PACKAGE GWF_1           CONNECTED TO MODEL GWF_1            PACKAGE GHB-1            ON UNIT   1022 AT TIME STEP      5, STRESS PERIOD      1
 UBDSV06 SAVING              RCH IN MODEL GWF_1            PACKAGE GWF_1           CONNECTED TO MODEL GWF_1            PACKAGE RCH-1            ON UNIT   1022 AT TIME STEP      5, STRESS PERIOD      1
 UBDSV06 SAVING              EVT IN MODEL GWF_1            PACKAGE GWF_1           CONNECTED TO MODEL GWF_1            PACKAGE EVT-1            ON UNIT   1022 AT TIME STEP      5, STRESS PERIOD      1
 UBDSV06 SAVING              SFR IN MODEL GWF_1            PACKAGE GWF_1           CONNECTED TO MODEL GWF_1            PACKAGE SFR-1            ON UNIT   1022 AT TIME STEP      5, STRESS PERIOD      1

              SFR (SFR-1)   PERIOD 1   STEP 5
 BOUNDARY        1  CELL              (1,1,1)   RATE    0.775419    
 BOUNDARY        2  CELL              (1,2,2)   RATE     2.14433    
 BOUNDARY        3  CELL              (1,3,3)   RATE     2.95385    
 BOUNDARY        4  CELL              (1,3,4)   RATE     2.67042    
 BOUNDARY        5  CELL              (1,4,5)   RATE     2.77285    
 BOUNDARY        6  CELL              (1,5,6)   RATE     2.05642    
 BOUNDARY        7  CELL              (1,6,6)   RATE     1.97802    
 BOUNDARY        8  CELL              (1,7,6)   RATE     1.42070    
 BOUNDARY        9  CELL              (1,8,6)   RATE     0.00000    
 BOUNDARY       10  CELL              (1,3,5)   RATE     1.93920    
 BOUNDARY       11  CELL              (1,3,6)   RATE     1.15690    
 BOUNDARY       12  CELL              (1,3,7)   RATE    0.220188    
 BOUNDARY       13  CELL              (1,4,8)   RATE    0.463738    
 BOUNDARY       14  CELL              (1,5,8)   RATE    0.854302    
 BOUNDARY       15  CELL              (1,6,8)   RATE    0.632381    
 BOUNDARY       16  CELL             (1,5,10)   RATE    0.905253    
 BOUNDARY       17  CELL              (1,5,9)   RATE     1.78348    
 BOUNDARY       18  CELL              (1,6,8)   RATE     1.22572    
 BOUNDARY       19  CELL              (1,6,8)   RATE   -0.203065    
 BOUNDARY       20  CELL              (1,7,7)   RATE     1.28491    
 BOUNDARY       21  CELL              (1,8,7)   RATE     1.56833    
 BOUNDARY       22  CELL              (1,8,6)   RATE     1.28621    
 BOUNDARY       23  CELL              (1,9,6)   RATE     2.04715    
 BOUNDARY       24  CELL             (1,10,7)   RATE     1.73246    
 BOUNDARY       25  CELL             (1,11,7)   RATE     1.33083    
 BOUNDARY       26  CELL             (1,12,7)   RATE     0.00000    
 BOUNDARY       27  CELL             (1,13,7)   RATE   -0.519449    
 BOUNDARY       28  CELL             (1,14,9)   RATE     2.50894    
 BOUNDARY       29  CELL             (1,13,8)   RATE     3.52293    
 BOUNDARY       30  CELL             (1,13,7)   RATE     2.70448    
 BOUNDARY       31  CELL             (1,13,6)   RATE    0.758651    
 BOUNDARY       32  CELL             (1,13,5)   RATE    -1.78627    
 BOUNDARY       33  CELL             (1,13,4)   RATE    -3.45755    
 BOUNDARY       34  CELL             (1,13,3)   RATE    -3.68959    
 BOUNDARY       35  CELL             (1,13,2)   RATE    -1.60712    
 BOUNDARY       36  CELL             (1,13,1)   RATE   -4.128097E-02

 UBDSV06 SAVING     FLOW-JA-FACE IN MODEL GWF_1            PACKAGE SFR-1           CONNECTED TO MODEL GWF_1            PACKAGE SFR-1            ON UNIT   1019 AT TIME STEP      5, STRESS PERIOD      1
 UBDSV06 SAVING              GWF IN MODEL GWF_1            PACKAGE SFR-1           CONNECTED TO MODEL GWF_1            PACKAGE GWF_1            ON UNIT   1019 AT TIME STEP      5, STRESS PERIOD      1
 UBDSV06 SAVING       EXT-INFLOW IN MODEL GWF_1            PACKAGE SFR-1           CONNECTED TO MODEL GWF_1            PACKAGE SFR-1            ON UNIT   1019 AT TIME STEP      5, STRESS PERIOD      1
 UBDSV06 SAVING         RAINFALL IN MODEL GWF_1            PACKAGE SFR-1           CONNECTED TO MODEL GWF_1            PACKAGE SFR-1            ON UNIT   1019 AT TIME STEP      5, STRESS PERIOD      1
 UBDSV06 SAVING           RUNOFF IN MODEL GWF_1            PACKAGE SFR-1           CONNECTED TO MODEL GWF_1            PACKAGE SFR-1            ON UNIT   1019 AT TIME STEP      5, STRESS PERIOD      1
 UBDSV06 SAVING      EVAPORATION IN MODEL GWF_1            PACKAGE SFR-1           CONNECTED TO MODEL GWF_1            PACKAGE SFR-1            ON UNIT   1019 AT TIME STEP      5, STRESS PERIOD      1
 UBDSV06 SAVING      EXT-OUTFLOW IN MODEL GWF_1            PACKAGE SFR-1           CONNECTED TO MODEL GWF_1            PACKAGE SFR-1            ON UNIT   1019 AT TIME STEP      5, STRESS PERIOD      1
1
  HEAD IN LAYER   1 AT END OF TIME STEP   5 IN STRESS PERIOD    1
  ---------------------------------------------------------------------------

            1           2           3           4           5           6           7           8           9          10
 ........................................................................................................................
   1    1093.       1089.      1.0000E+30  1.0000E+30  1.0000E+30  1.0000E+30  1.0000E+30  1.0000E+30  1.0000E+30  1.0000E+30
   2    1090.       1087.       1081.      1.0000E+30  1.0000E+30   1072.       1071.       1071.      1.0000E+30  1.0000E+30
   3   1.0000E+30   1079.       1077.       1073.       1072.       1070.       1069.       1068.      1.0000E+30  1.0000E+30
   4    1069.       1071.       1070.       1066.       1064.       1063.       1064.       1066.       1066.      1.0000E+30
   5    1065.       1064.       1062.       1058.       1058.       1059.       1060.       1062.       1066.       1068.    
   6    1060.       1058.       1054.       1048.       1049.       1054.       1056.       1059.       1062.       1066.    
   7    1056.       1052.       1048.       1040.       1042.       1049.       1052.       1055.       1056.      1.0000E+30
   8   1.0000E+30   1046.       1042.       1034.       1036.       1043.       1047.       1050.       1050.      1.0000E+30
   9   1.0000E+30   1039.       1036.       1028.       1031.       1038.       1040.       1043.       1044.      1.0000E+30
  10   1.0000E+30   1031.       1029.       1024.       1027.       1033.       1036.       1037.       1039.       1042.    
  11   1.0000E+30   1021.       1022.       1024.       1026.       1029.       1031.       1033.       1036.      1.0000E+30
  12    1001.       1009.       1014.       1018.       1022.       1025.       1028.       1030.       1034.      1.0000E+30
  13    993.3       998.7       1005.       1012.       1017.       1023.       1028.       1033.       1036.      1.0000E+30
  14   1.0000E+30   1004.       1009.       1013.       1019.       1024.       1029.       1035.       1038.      1.0000E+30
  15   1.0000E+30  1.0000E+30   1012.       1015.       1019.       1022.      1.0000E+30  1.0000E+30  1.0000E+30  1.0000E+30

 HEAD WILL BE SAVED ON UNIT 1021 AT END OF TIME STEP    5, STRESS PERIOD    1



 SFR (SFR-1) FLOWS   PERIOD      1   STEP        5
 ----------------------------------------------------------------------------------------------------------------------------------------------------
 REACH  REACH                 EXTERNAL      REACH       REACH       REACH       REACH       REACH       REACH     EXTERNAL      REACH      PERCENT   
  NO.   (LAYER,ROW,COLUMN)     INFLOW      INFLOW     RAINFALL     RUNOFF      LEAKAGE   EVAPORATION   OUTFLOW     OUTFLOW    IN - OUT   DIFFERENCE  
 ----------------------------------------------------------------------------------------------------------------------------------------------------
      1 (1,1,1)                25.00       0.000       0.000       0.000     -0.7754       0.000      -24.22       0.000       0.000       0.000     
      2 (1,2,2)                0.000       24.22       0.000       0.000      -2.144       0.000      -22.08       0.000       0.000       0.000     
      3 (1,3,3)                0.000       22.08       0.000       0.000      -2.954       0.000      -19.13       0.000       0.000       0.000     
      4 (1,3,4)                0.000       19.13       0.000       0.000      -2.670       0.000      -16.46       0.000       0.000       0.000     
      5 (1,4,5)                0.000       8.228       0.000       0.000      -2.773       0.000      -5.455       0.000       0.000       0.000     
      6 (1,5,6)                0.000       5.455       0.000       0.000      -2.056       0.000      -3.399       0.000       0.000       0.000     
      7 (1,6,6)                0.000       3.399       0.000       0.000      -1.978       0.000      -1.421       0.000       0.000       0.000     
      8 (1,7,6)                0.000       1.421       0.000       0.000      -1.421       0.000       0.000       0.000       0.000       0.000     
      9 (1,8,6)                0.000       0.000       0.000       0.000       0.000       0.000       0.000       0.000       0.000       0.000     
     10 (1,3,5)                0.000       8.228       0.000       0.000      -1.939       0.000      -6.289       0.000       0.000       0.000     
     11 (1,3,6)                0.000       6.289       0.000       0.000      -1.157       0.000      -5.132       0.000       0.000       0.000     
     12 (1,3,7)                0.000       5.132       0.000       0.000     -0.2202       0.000      -4.912       0.000       0.000       0.000     
     13 (1,4,8)                0.000       4.912       0.000       0.000     -0.4637       0.000      -4.448       0.000       0.000       0.000     
     14 (1,5,8)                0.000       4.448       0.000       0.000     -0.8543       0.000      -3.594       0.000       0.000       0.000     
     15 (1,6,8)                0.000       3.594       0.000       0.000     -0.6324       0.000      -2.961       0.000       0.000       0.000     
     16 (1,5,10)               10.00       0.000       0.000       0.000     -0.9053       0.000      -9.095       0.000       0.000       0.000     
     17 (1,5,9)                0.000       9.095       0.000       0.000      -1.783       0.000      -7.311       0.000       0.000       0.000     
     18 (1,6,8)                0.000       7.311       0.000       0.000      -1.226       0.000      -6.086       0.000       0.000       0.000     
     19 (1,6,8)                0.000       9.047       0.000       0.000      0.2031       0.000      -9.250       0.000       0.000       0.000     
     20 (1,7,7)                0.000       9.250       0.000       0.000      -1.285       0.000      -7.965       0.000       0.000       0.000     
     21 (1,8,7)                0.000       7.965       0.000       0.000      -1.568       0.000      -6.397       0.000       0.000       0.000     
     22 (1,8,6)                0.000       6.397       0.000       0.000      -1.286       0.000      -5.110       0.000       0.000       0.000     
     23 (1,9,6)                0.000       5.110       0.000       0.000      -2.047       0.000      -3.063       0.000       0.000       0.000     
     24 (1,10,7)               0.000       3.063       0.000       0.000      -1.732       0.000      -1.331       0.000       0.000       0.000     
     25 (1,11,7)               0.000       1.331       0.000       0.000      -1.331       0.000       0.000       0.000       0.000       0.000     
     26 (1,12,7)               0.000       0.000       0.000       0.000       0.000       0.000       0.000       0.000       0.000       0.000     
     27 (1,13,7)               0.000       0.000       0.000       0.000      0.5194       0.000     -0.5194       0.000       0.000       0.000     
     28 (1,14,9)               150.0       0.000       0.000       0.000      -2.509       0.000      -147.5       0.000       0.000       0.000     
     29 (1,13,8)               0.000       147.5       0.000       0.000      -3.523       0.000      -144.0       0.000       0.000       0.000     
     30 (1,13,7)               0.000       144.0       0.000       0.000      -2.704       0.000      -141.3       0.000       0.000       0.000     
     31 (1,13,6)               0.000       141.8       0.000       0.000     -0.7587       0.000      -141.0       0.000       0.000       0.000     
     32 (1,13,5)               0.000       141.0       0.000       0.000       1.786       0.000      -142.8       0.000       0.000       0.000     
     33 (1,13,4)               0.000       142.8       0.000       0.000       3.458       0.000      -146.3       0.000       0.000       0.000     
     34 (1,13,3)               0.000       146.3       0.000       0.000       3.690       0.000      -150.0       0.000       0.000       0.000     
     35 (1,13,2)               0.000       150.0       0.000       0.000       1.607       0.000      -151.6       0.000       0.000       0.000     
     36 (1,13,1)               0.000       151.6       0.000       0.000      0.4128E-01   0.000       0.000      -151.6       0.000       0.000     


  SFR-1 BUDGET FOR ENTIRE MODEL AT END OF TIME STEP    5, STRESS PERIOD   1
  ------------------------------------------------------------------------------

     CUMULATIVE SFR-1      L**3       RATES FOR THIS TIME STEP      L**3/T
     ------------------                 ------------------------

           IN:                                      IN:
           ---                                      ---
          EXT-INFLOW =  1531156672.2705            EXT-INFLOW =         185.0000
            RAINFALL =           0.0000              RAINFALL =           0.0000
              RUNOFF =           0.0000                RUNOFF =           0.0000
                 GWF =   123943229.7421                   GWF =          11.3043
         EVAPORATION =           0.0000           EVAPORATION =           0.0000
         EXT-OUTFLOW =           0.0000           EXT-OUTFLOW =           0.0000

            TOTAL IN =  1655099902.0126              TOTAL IN =         196.3043

          OUT:                                     OUT:
          ----                                     ----
          EXT-INFLOW =           0.0000            EXT-INFLOW =           0.0000
            RAINFALL =           0.0000              RAINFALL =           0.0000
              RUNOFF =           0.0000                RUNOFF =           0.0000
                 GWF =   340429557.2804                   GWF =          44.6981
         EVAPORATION =           0.0000           EVAPORATION =           0.0000
         EXT-OUTFLOW =  1314670344.7322           EXT-OUTFLOW =         151.6063

           TOTAL OUT =  1655099902.0126             TOTAL OUT =         196.3043

            IN - OUT =           0.0000              IN - OUT =           0.0000

 PERCENT DISCREPANCY =           0.00     PERCENT DISCREPANCY =           0.00



  VOLUME BUDGET FOR ENTIRE MODEL AT END OF TIME STEP    5, STRESS PERIOD   1
  ---------------------------------------------------------------------------------------------------

     CUMULATIVE VOLUME      L**3       RATES FOR THIS TIME STEP      L**3/T          PACKAGE NAME    
     ------------------                 ------------------------                     ----------------

           IN:                                      IN:
           ---                                      ---
              STO-SS =     6524247.1066                STO-SS =           0.7324     STORAGE         
              STO-SY =   826842428.4560                STO-SY =          89.8169     STORAGE         
                 WEL =           0.0000                   WEL =           0.0000     WEL-1           
                 GHB =     2051119.8914                   GHB =           0.2515     GHB-1           
                 RCH =    14846012.3291                   RCH =           1.7938     RCH-1           
                 EVT =           0.0000                   EVT =           0.0000     EVT-1           
                 SFR =   340429562.3170                   SFR =          44.6981     SFR-1           

            TOTAL IN =  1190693370.1002              TOTAL IN =         137.2926

          OUT:                                     OUT:
          ----                                     ----
              STO-SS =        3478.4097                STO-SS =           0.0000     STORAGE         
              STO-SY =      406734.8032                STO-SY =           0.0000     STORAGE         
                 WEL =   827652255.2814                   WEL =         100.0000     WEL-1           
                 GHB =     1747157.4267                   GHB =           0.2020     GHB-1           
                 RCH =           0.0000                   RCH =           0.0000     RCH-1           
                 EVT =   236940592.4334                   EVT =          25.7862     EVT-1           
                 SFR =   123943152.7391                   SFR =          11.3043     SFR-1           

           TOTAL OUT =  1190693371.0934             TOTAL OUT =         137.2926

            IN - OUT =          -0.9932              IN - OUT =      -4.5840E-07

 PERCENT DISCREPANCY =          -0.00     PERCENT DISCREPANCY =          -0.00




         TIME SUMMARY AT END OF TIME STEP    5 IN STRESS PERIOD    1
                    SECONDS     MINUTES      HOURS       DAYS        YEARS
                    -----------------------------------------------------------
   TIME STEP LENGTH 1.98484E+06  33081.      551.34      22.973     6.28958E-02
 STRESS PERIOD TIME 8.27652E+06 1.37942E+05  2299.0      95.793     0.26227    
         TOTAL TIME 8.27652E+06 1.37942E+05  2299.0      95.793     0.26227    
 UBDSV1 SAVING           STO-SS ON UNIT   1022 AT TIME STEP     10, STRESS PERIOD      1
 UBDSV1 SAVING           STO-SY ON UNIT   1022 AT TIME STEP     10, STRESS PERIOD      1
 UBDSV1 SAVING     FLOW-JA-FACE ON UNIT   1022 AT TIME STEP     10, STRESS PERIOD      1
 UBDSV06 SAVING              WEL IN MODEL GWF_1            PACKAGE GWF_1           CONNECTED TO MODEL GWF_1            PACKAGE WEL-1            ON UNIT   1022 AT TIME STEP     10, STRESS PERIOD      1
 UBDSV06 SAVING              GHB IN MODEL GWF_1            PACKAGE GWF_1           CONNECTED TO MODEL GWF_1            PACKAGE GHB-1            ON UNIT   1022 AT TIME STEP     10, STRESS PERIOD      1
 UBDSV06 SAVING              RCH IN MODEL GWF_1            PACKAGE GWF_1           CONNECTED TO MODEL GWF_1            PACKAGE RCH-1            ON UNIT   1022 AT TIME STEP     10, STRESS PERIOD      1
 UBDSV06 SAVING              EVT IN MODEL GWF_1            PACKAGE GWF_1           CONNECTED TO MODEL GWF_1            PACKAGE EVT-1            ON UNIT   1022 AT TIME STEP     10, STRESS PERIOD      1
 UBDSV06 SAVING              SFR IN MODEL GWF_1            PACKAGE GWF_1           CONNECTED TO MODEL GWF_1            PACKAGE SFR-1            ON UNIT   1022 AT TIME STEP     10, STRESS PERIOD      1

              SFR (SFR-1)   PERIOD 1   STEP 10
 BOUNDARY        1  CELL              (1,1,1)   RATE    0.791301    
 BOUNDARY        2  CELL              (1,2,2)   RATE     2.21879    
 BOUNDARY        3  CELL              (1,3,3)   RATE     2.95179    
 BOUNDARY        4  CELL              (1,3,4)   RATE     2.66844    
 BOUNDARY        5  CELL              (1,4,5)   RATE     2.77124    
 BOUNDARY        6  CELL              (1,5,6)   RATE     2.05500    
 BOUNDARY        7  CELL              (1,6,6)   RATE     1.97628    
 BOUNDARY        8  CELL              (1,7,6)   RATE     1.38233    
 BOUNDARY        9  CELL              (1,8,6)   RATE     0.00000    
 BOUNDARY       10  CELL              (1,3,5)   RATE     2.06210    
 BOUNDARY       11  CELL              (1,3,6)   RATE     1.54001    
 BOUNDARY       12  CELL              (1,3,7)   RATE    0.383729    
 BOUNDARY       13  CELL              (1,4,8)   RATE    0.642962    
 BOUNDARY       14  CELL              (1,5,8)   RATE     1.38841    
 BOUNDARY       15  CELL              (1,6,8)   RATE    0.698842    
 BOUNDARY       16  CELL             (1,5,10)   RATE    0.905253    
 BOUNDARY       17  CELL              (1,5,9)   RATE     1.78348    
 BOUNDARY       18  CELL              (1,6,8)   RATE     1.22572    
 BOUNDARY       19  CELL              (1,6,8)   RATE    0.414637    
 BOUNDARY       20  CELL              (1,7,7)   RATE     2.57572    
 BOUNDARY       21  CELL              (1,8,7)   RATE     1.74790    
 BOUNDARY       22  CELL              (1,8,6)   RATE     1.21575    
 BOUNDARY       23  CELL              (1,9,6)   RATE     1.60032    
 BOUNDARY       24  CELL             (1,10,7)   RATE     0.00000    
 BOUNDARY       25  CELL             (1,11,7)   RATE     0.00000    
 BOUNDARY       26  CELL             (1,12,7)   RATE     0.00000    
 BOUNDARY       27  CELL             (1,13,7)   RATE   -0.481078    
 BOUNDARY       28  CELL             (1,14,9)   RATE     2.63735    
 BOUNDARY       29  CELL             (1,13,8)   RATE     3.78598    
 BOUNDARY       30  CELL             (1,13,7)   RATE     3.57978    
 BOUNDARY       31  CELL             (1,13,6)   RATE     1.84540    
 BOUNDARY       32  CELL             (1,13,5)   RATE   -0.397274    
 BOUNDARY       33  CELL             (1,13,4)   RATE    -2.17531    
 BOUNDARY       34  CELL             (1,13,3)   RATE    -2.93247    
 BOUNDARY       35  CELL             (1,13,2)   RATE    -1.38139    
 BOUNDARY       36  CELL             (1,13,1)   RATE    0.117690    

 UBDSV06 SAVING     FLOW-JA-FACE IN MODEL GWF_1            PACKAGE SFR-1           CONNECTED TO MODEL GWF_1            PACKAGE SFR-1            ON UNIT   1019 AT TIME STEP     10, STRESS PERIOD      1
 UBDSV06 SAVING              GWF IN MODEL GWF_1            PACKAGE SFR-1           CONNECTED TO MODEL GWF_1            PACKAGE GWF_1            ON UNIT   1019 AT TIME STEP     10, STRESS PERIOD      1
 UBDSV06 SAVING       EXT-INFLOW IN MODEL GWF_1            PACKAGE SFR-1           CONNECTED TO MODEL GWF_1            PACKAGE SFR-1            ON UNIT   1019 AT TIME STEP     10, STRESS PERIOD      1
 UBDSV06 SAVING         RAINFALL IN MODEL GWF_1            PACKAGE SFR-1           CONNECTED TO MODEL GWF_1            PACKAGE SFR-1            ON UNIT   1019 AT TIME STEP     10, STRESS PERIOD      1
 UBDSV06 SAVING           RUNOFF IN MODEL GWF_1            PACKAGE SFR-1           CONNECTED TO MODEL GWF_1            PACKAGE SFR-1            ON UNIT   1019 AT TIME STEP     10, STRESS PERIOD      1
 UBDSV06 SAVING      EVAPORATION IN MODEL GWF_1            PACKAGE SFR-1           CONNECTED TO MODEL GWF_1            PACKAGE SFR-1            ON UNIT   1019 AT TIME STEP     10, STRESS PERIOD      1
 UBDSV06 SAVING      EXT-OUTFLOW IN MODEL GWF_1            PACKAGE SFR-1           CONNECTED TO MODEL GWF_1            PACKAGE SFR-1            ON UNIT   1019 AT TIME STEP     10, STRESS PERIOD      1
1
  HEAD IN LAYER   1 AT END OF TIME STEP  10 IN STRESS PERIOD    1
  ---------------------------------------------------------------------------

            1           2           3           4           5           6           7           8           9          10
 ........................................................................................................................
   1    1093.       1089.      1.0000E+30  1.0000E+30  1.0000E+30  1.0000E+30  1.0000E+30  1.0000E+30  1.0000E+30  1.0000E+30
   2    1090.       1087.       1081.      1.0000E+30  1.0000E+30   1072.       1071.       1071.      1.0000E+30  1.0000E+30
   3   1.0000E+30   1079.       1076.       1072.       1071.       1069.       1068.       1068.      1.0000E+30  1.0000E+30
   4    1069.       1070.       1068.       1063.       1062.       1061.       1062.       1065.       1066.      1.0000E+30
   5    1064.       1062.       1058.       1053.       1054.       1056.       1058.       1061.       1065.       1068.    
   6    1059.       1056.       1049.       1040.       1042.       1050.       1054.       1058.       1061.       1066.    
   7    1055.       1050.       1041.       1031.       1034.       1043.       1050.       1054.       1056.      1.0000E+30
   8   1.0000E+30   1043.       1034.       1024.       1028.       1037.       1043.       1048.       1050.      1.0000E+30
   9   1.0000E+30   1036.       1029.       1019.       1023.       1032.       1036.       1041.       1044.      1.0000E+30
  10   1.0000E+30   1029.       1024.       1017.       1020.       1028.       1032.       1036.       1039.       1042.    
  11   1.0000E+30   1020.       1019.       1019.       1021.       1026.       1028.       1032.       1035.      1.0000E+30
  12    1001.       1008.       1012.       1016.       1020.       1023.       1026.       1030.       1034.      1.0000E+30
  13    993.2       998.6       1005.       1011.       1017.       1023.       1028.       1033.       1035.      1.0000E+30
  14   1.0000E+30   1004.       1008.       1013.       1018.       1023.       1029.       1034.       1038.      1.0000E+30
  15   1.0000E+30  1.0000E+30   1012.       1015.       1019.       1022.      1.0000E+30  1.0000E+30  1.0000E+30  1.0000E+30

 HEAD WILL BE SAVED ON UNIT 1021 AT END OF TIME STEP   10, STRESS PERIOD    1



 SFR (SFR-1) FLOWS   PERIOD      1   STEP       10
 ----------------------------------------------------------------------------------------------------------------------------------------------------
 REACH  REACH                 EXTERNAL      REACH       REACH       REACH       REACH       REACH       REACH     EXTERNAL      REACH      PERCENT   
  NO.   (LAYER,ROW,COLUMN)     INFLOW      INFLOW     RAINFALL     RUNOFF      LEAKAGE   EVAPORATION   OUTFLOW     OUTFLOW    IN - OUT   DIFFERENCE  
 ----------------------------------------------------------------------------------------------------------------------------------------------------
      1 (1,1,1)                25.00       0.000       0.000       0.000     -0.7913       0.000      -24.21       0.000       0.000       0.000     
      2 (1,2,2)                0.000       24.21       0.000       0.000      -2.219       0.000      -21.99       0.000       0.000       0.000     
      3 (1,3,3)                0.000       21.99       0.000       0.000      -2.952       0.000      -19.04       0.000       0.000       0.000     
      4 (1,3,4)                0.000       19.04       0.000       0.000      -2.668       0.000      -16.37       0.000       0.000       0.000     
      5 (1,4,5)                0.000       8.185       0.000       0.000      -2.771       0.000      -5.414       0.000       0.000       0.000     
      6 (1,5,6)                0.000       5.414       0.000       0.000      -2.055       0.000      -3.359       0.000       0.000       0.000     
      7 (1,6,6)                0.000       3.359       0.000       0.000      -1.976       0.000      -1.382       0.000       0.000       0.000     
      8 (1,7,6)                0.000       1.382       0.000       0.000      -1.382       0.000       0.000       0.000       0.000       0.000     
      9 (1,8,6)                0.000       0.000       0.000       0.000       0.000       0.000       0.000       0.000       0.000       0.000     
     10 (1,3,5)                0.000       8.185       0.000       0.000      -2.062       0.000      -6.123       0.000       0.000       0.000     
     11 (1,3,6)                0.000       6.123       0.000       0.000      -1.540       0.000      -4.583       0.000       0.000       0.000     
     12 (1,3,7)                0.000       4.583       0.000       0.000     -0.3837       0.000      -4.199       0.000       0.000       0.000     
     13 (1,4,8)                0.000       4.199       0.000       0.000     -0.6430       0.000      -3.556       0.000       0.000       0.000     
     14 (1,5,8)                0.000       3.556       0.000       0.000      -1.388       0.000      -2.168       0.000       0.000       0.000     
     15 (1,6,8)                0.000       2.168       0.000       0.000     -0.6988       0.000      -1.469       0.000       0.000       0.000     
     16 (1,5,10)               10.00       0.000       0.000       0.000     -0.9053       0.000      -9.095       0.000       0.000       0.000     
     17 (1,5,9)                0.000       9.095       0.000       0.000      -1.783       0.000      -7.311       0.000       0.000       0.000     
     18 (1,6,8)                0.000       7.311       0.000       0.000      -1.226       0.000      -6.086       0.000       0.000       0.000     
     19 (1,6,8)                0.000       7.554       0.000       0.000     -0.4146       0.000      -7.140       0.000       0.000       0.000     
     20 (1,7,7)                0.000       7.140       0.000       0.000      -2.576       0.000      -4.564       0.000       0.000       0.000     
     21 (1,8,7)                0.000       4.564       0.000       0.000      -1.748       0.000      -2.816       0.000       0.000       0.000     
     22 (1,8,6)                0.000       2.816       0.000       0.000      -1.216       0.000      -1.600       0.000       0.000       0.000     
     23 (1,9,6)                0.000       1.600       0.000       0.000      -1.600       0.000       0.000       0.000       0.000       0.000     
     24 (1,10,7)               0.000       0.000       0.000       0.000       0.000       0.000       0.000       0.000       0.000       0.000     
     25 (1,11,7)               0.000       0.000       0.000       0.000       0.000       0.000       0.000       0.000       0.000       0.000     
     26 (1,12,7)               0.000       0.000       0.000       0.000       0.000       0.000       0.000       0.000       0.000       0.000     
     27 (1,13,7)               0.000       0.000       0.000       0.000      0.4811       0.000     -0.4811       0.000       0.000       0.000     
     28 (1,14,9)               150.0       0.000       0.000       0.000      -2.637       0.000      -147.4       0.000       0.000       0.000     
     29 (1,13,8)               0.000       147.4       0.000       0.000      -3.786       0.000      -143.6       0.000       0.000       0.000     
     30 (1,13,7)               0.000       143.6       0.000       0.000      -3.580       0.000      -140.0       0.000       0.000       0.000     
     31 (1,13,6)               0.000       140.5       0.000       0.000      -1.845       0.000      -138.6       0.000       0.000       0.000     
     32 (1,13,5)               0.000       138.6       0.000       0.000      0.3973       0.000      -139.0       0.000       0.000       0.000     
     33 (1,13,4)               0.000       139.0       0.000       0.000       2.175       0.000      -141.2       0.000       0.000       0.000     
     34 (1,13,3)               0.000       141.2       0.000       0.000       2.932       0.000      -144.1       0.000       0.000       0.000     
     35 (1,13,2)               0.000       144.1       0.000       0.000       1.381       0.000      -145.5       0.000       0.000       0.000     
     36 (1,13,1)               0.000       145.5       0.000       0.000     -0.1177       0.000       0.000      -145.4       0.000       0.000     


  SFR-1 BUDGET FOR ENTIRE MODEL AT END OF TIME STEP   10, STRESS PERIOD   1
  ------------------------------------------------------------------------------

     CUMULATIVE SFR-1      L**3       RATES FOR THIS TIME STEP      L**3/T
     ------------------                 ------------------------

           IN:                                      IN:
           ---                                      ---
          EXT-INFLOW =  3997099804.5289            EXT-INFLOW =         185.0000
            RAINFALL =           0.0000              RAINFALL =           0.0000
              RUNOFF =           0.0000                RUNOFF =           0.0000
                 GWF =   240830208.3396                   GWF =           7.3675
         EVAPORATION =           0.0000           EVAPORATION =           0.0000
         EXT-OUTFLOW =           0.0000           EXT-OUTFLOW =           0.0000

            TOTAL IN =  4237930012.8685              TOTAL IN =         192.3675

          OUT:                                     OUT:
          ----                                     ----
          EXT-INFLOW =           0.0000            EXT-INFLOW =           0.0000
            RAINFALL =           0.0000              RAINFALL =           0.0000
              RUNOFF =           0.0000                RUNOFF =           0.0000
                 GWF =   954902355.2563                   GWF =          46.9662
         EVAPORATION =           0.0000           EVAPORATION =           0.0000
         EXT-OUTFLOW =  3283027657.6122           EXT-OUTFLOW =         145.4013

           TOTAL OUT =  4237930012.8685             TOTAL OUT =         192.3675

            IN - OUT =           0.0000              IN - OUT =           0.0000

 PERCENT DISCREPANCY =           0.00     PERCENT DISCREPANCY =           0.00



  VOLUME BUDGET FOR ENTIRE MODEL AT END OF TIME STEP   10, STRESS PERIOD   1
  ---------------------------------------------------------------------------------------------------

     CUMULATIVE VOLUME      L**3       RATES FOR THIS TIME STEP      L**3/T          PACKAGE NAME    
     ------------------                 ------------------------                     ----------------

           IN:                                      IN:
           ---                                      ---
              STO-SS =    15691954.3925                STO-SS =           0.6629     STORAGE         
              STO-SY =  1921919746.9764                STO-SY =          78.2455     STORAGE         
                 WEL =           0.0000                   WEL =           0.0000     WEL-1           
                 GHB =     5412617.7404                   GHB =           0.2524     GHB-1           
                 RCH =    38755663.6453                   RCH =           1.7938     RCH-1           
                 EVT =           0.0000                   EVT =           0.0000     EVT-1           
                 SFR =   954902369.7625                   SFR =          46.9662     SFR-1           

            TOTAL IN =  2936682352.5172              TOTAL IN =         127.9207

          OUT:                                     OUT:
          ----                                     ----
              STO-SS =        3478.4097                STO-SS =           0.0000     STORAGE         
              STO-SY =      406734.8032                STO-SY =           0.0000     STORAGE         
                 WEL =  2160594488.9345                   WEL =         100.0000     WEL-1           
                 GHB =     4401155.3917                   GHB =           0.1982     GHB-1           
                 RCH =           0.0000                   RCH =           0.0000     RCH-1           
                 EVT =   530446388.6951                   EVT =          20.3550     EVT-1           
                 SFR =   240830112.0347                   SFR =           7.3675     SFR-1           

           TOTAL OUT =  2936682358.2689             TOTAL OUT =         127.9207

            IN - OUT =          -5.7518              IN - OUT =      -5.8691E-07

 PERCENT DISCREPANCY =          -0.00     PERCENT DISCREPANCY =          -0.00




         TIME SUMMARY AT END OF TIME STEP   10 IN STRESS PERIOD    1
                    SECONDS     MINUTES      HOURS       DAYS        YEARS
                    -----------------------------------------------------------
   TIME STEP LENGTH 3.19661E+06  53277.      887.95      36.998     0.10129    
 STRESS PERIOD TIME 2.16059E+07 3.60099E+05  6001.7      250.07     0.68465    
         TOTAL TIME 2.16059E+07 3.60099E+05  6001.7      250.07     0.68465    
 UBDSV1 SAVING           STO-SS ON UNIT   1022 AT TIME STEP     15, STRESS PERIOD      1
 UBDSV1 SAVING           STO-SY ON UNIT   1022 AT TIME STEP     15, STRESS PERIOD      1
 UBDSV1 SAVING     FLOW-JA-FACE ON UNIT   1022 AT TIME STEP     15, STRESS PERIOD      1
 UBDSV06 SAVING              WEL IN MODEL GWF_1            PACKAGE GWF_1           CONNECTED TO MODEL GWF_1            PACKAGE WEL-1            ON UNIT   1022 AT TIME STEP     15, STRESS PERIOD      1
 UBDSV06 SAVING              GHB IN MODEL GWF_1            PACKAGE GWF_1           CONNECTED TO MODEL GWF_1            PACKAGE GHB-1            ON UNIT   1022 AT TIME STEP     15, STRESS PERIOD      1
 UBDSV06 SAVING              RCH IN MODEL GWF_1            PACKAGE GWF_1           CONNECTED TO MODEL GWF_1            PACKAGE RCH-1            ON UNIT   1022 AT TIME STEP     15, STRESS PERIOD      1
 UBDSV06 SAVING              EVT IN MODEL GWF_1            PACKAGE GWF_1           CONNECTED TO MODEL GWF_1            PACKAGE EVT-1            ON UNIT   1022 AT TIME STEP     15, STRESS PERIOD      1
 UBDSV06 SAVING              SFR IN MODEL GWF_1            PACKAGE GWF_1           CONNECTED TO MODEL GWF_1            PACKAGE SFR-1            ON UNIT   1022 AT TIME STEP     15, STRESS PERIOD      1

              SFR (SFR-1)   PERIOD 1   STEP 15
 BOUNDARY        1  CELL              (1,1,1)   RATE    0.814814    
 BOUNDARY        2  CELL              (1,2,2)   RATE     2.59084    
 BOUNDARY        3  CELL              (1,3,3)   RATE     2.94270    
 BOUNDARY        4  CELL              (1,3,4)   RATE     2.65972    
 BOUNDARY        5  CELL              (1,4,5)   RATE     2.76414    
 BOUNDARY        6  CELL              (1,5,6)   RATE     2.04872    
 BOUNDARY        7  CELL              (1,6,6)   RATE     1.96851    
 BOUNDARY        8  CELL              (1,7,6)   RATE     1.21460    
 BOUNDARY        9  CELL              (1,8,6)   RATE     0.00000    
 BOUNDARY       10  CELL              (1,3,5)   RATE     2.05336    
 BOUNDARY       11  CELL              (1,3,6)   RATE     1.95159    
 BOUNDARY       12  CELL              (1,3,7)   RATE    0.736860    
 BOUNDARY       13  CELL              (1,4,8)   RATE     1.09673    
 BOUNDARY       14  CELL              (1,5,8)   RATE     1.70262    
 BOUNDARY       15  CELL              (1,6,8)   RATE    0.454807    
 BOUNDARY       16  CELL             (1,5,10)   RATE    0.905253    
 BOUNDARY       17  CELL              (1,5,9)   RATE     1.78348    
 BOUNDARY       18  CELL              (1,6,8)   RATE     1.22572    
 BOUNDARY       19  CELL              (1,6,8)   RATE     2.02452    
 BOUNDARY       20  CELL              (1,7,7)   RATE     2.46067    
 BOUNDARY       21  CELL              (1,8,7)   RATE     1.60036    
 BOUNDARY       22  CELL              (1,8,6)   RATE     0.00000    
 BOUNDARY       23  CELL              (1,9,6)   RATE     0.00000    
 BOUNDARY       24  CELL             (1,10,7)   RATE     0.00000    
 BOUNDARY       25  CELL             (1,11,7)   RATE     0.00000    
 BOUNDARY       26  CELL             (1,12,7)   RATE     0.00000    
 BOUNDARY       27  CELL             (1,13,7)   RATE   -0.433345    
 BOUNDARY       28  CELL             (1,14,9)   RATE     2.68854    
 BOUNDARY       29  CELL             (1,13,8)   RATE     4.04758    
 BOUNDARY       30  CELL             (1,13,7)   RATE     4.67437    
 BOUNDARY       31  CELL             (1,13,6)   RATE     3.24293    
 BOUNDARY       32  CELL             (1,13,5)   RATE     1.28421    
 BOUNDARY       33  CELL             (1,13,4)   RATE   -0.622384    
 BOUNDARY       34  CELL             (1,13,3)   RATE    -1.92735    
 BOUNDARY       35  CELL             (1,13,2)   RATE    -1.14192    
 BOUNDARY       36  CELL             (1,13,1)   RATE    0.162329    

 UBDSV06 SAVING     FLOW-JA-FACE IN MODEL GWF_1            PACKAGE SFR-1           CONNECTED TO MODEL GWF_1            PACKAGE SFR-1            ON UNIT   1019 AT TIME STEP     15, STRESS PERIOD      1
 UBDSV06 SAVING              GWF IN MODEL GWF_1            PACKAGE SFR-1           CONNECTED TO MODEL GWF_1            PACKAGE GWF_1            ON UNIT   1019 AT TIME STEP     15, STRESS PERIOD      1
 UBDSV06 SAVING       EXT-INFLOW IN MODEL GWF_1            PACKAGE SFR-1           CONNECTED TO MODEL GWF_1            PACKAGE SFR-1            ON UNIT   1019 AT TIME STEP     15, STRESS PERIOD      1
 UBDSV06 SAVING         RAINFALL IN MODEL GWF_1            PACKAGE SFR-1           CONNECTED TO MODEL GWF_1            PACKAGE SFR-1            ON UNIT   1019 AT TIME STEP     15, STRESS PERIOD      1
 UBDSV06 SAVING           RUNOFF IN MODEL GWF_1            PACKAGE SFR-1           CONNECTED TO MODEL GWF_1            PACKAGE SFR-1            ON UNIT   1019 AT TIME STEP     15, STRESS PERIOD      1
 UBDSV06 SAVING      EVAPORATION IN MODEL GWF_1            PACKAGE SFR-1           CONNECTED TO MODEL GWF_1            PACKAGE SFR-1            ON UNIT   1019 AT TIME STEP     15, STRESS PERIOD      1
 UBDSV06 SAVING      EXT-OUTFLOW IN MODEL GWF_1            PACKAGE SFR-1           CONNECTED TO MODEL GWF_1            PACKAGE SFR-1            ON UNIT   1019 AT TIME STEP     15, STRESS PERIOD      1
1
  HEAD IN LAYER   1 AT END OF TIME STEP  15 IN STRESS PERIOD    1
  ---------------------------------------------------------------------------

[...]

            TOTAL IN =236841475939.6951              TOTAL IN =          44.9120

          OUT:                                     OUT:
          ----                                     ----
              STO-SS =   256148464.6102                STO-SS =       1.1736E-02     STORAGE         
              STO-SY = 30391709586.3450                STO-SY =           1.1327     STORAGE         
                 WEL =157788000000.0000                   WEL =           0.0000     WEL-1           
                 GHB =   471525149.8190                   GHB =           0.1989     GHB-1           
                 RCH =           0.0000                   RCH =           0.0000     RCH-1           
                 EVT = 41783336233.4486                   EVT =          32.6607     EVT-1           
                 SFR =  6150757726.0699                   SFR =          10.9080     SFR-1           

           TOTAL OUT =236841477160.2926             TOTAL OUT =          44.9120

            IN - OUT =       -1220.5975              IN - OUT =       1.2775E-06

 PERCENT DISCREPANCY =          -0.00     PERCENT DISCREPANCY =           0.00




         TIME SUMMARY AT END OF TIME STEP   45 IN STRESS PERIOD    2
                    SECONDS     MINUTES      HOURS       DAYS        YEARS
                    -----------------------------------------------------------
   TIME STEP LENGTH 8.98325E+07 1.49721E+06  24953.      1039.7      2.8466    
 STRESS PERIOD TIME 9.74600E+08 1.62433E+07 2.70722E+05  11280.      30.883    
         TOTAL TIME 2.55248E+09 4.25413E+07 7.09022E+05  29543.      80.883    
 UBDSV1 SAVING           STO-SS ON UNIT   1022 AT TIME STEP     50, STRESS PERIOD      2
 UBDSV1 SAVING           STO-SY ON UNIT   1022 AT TIME STEP     50, STRESS PERIOD      2
 UBDSV1 SAVING     FLOW-JA-FACE ON UNIT   1022 AT TIME STEP     50, STRESS PERIOD      2
 UBDSV06 SAVING              WEL IN MODEL GWF_1            PACKAGE GWF_1           CONNECTED TO MODEL GWF_1            PACKAGE WEL-1            ON UNIT   1022 AT TIME STEP     50, STRESS PERIOD      2
 UBDSV06 SAVING              GHB IN MODEL GWF_1            PACKAGE GWF_1           CONNECTED TO MODEL GWF_1            PACKAGE GHB-1            ON UNIT   1022 AT TIME STEP     50, STRESS PERIOD      2
 UBDSV06 SAVING              RCH IN MODEL GWF_1            PACKAGE GWF_1           CONNECTED TO MODEL GWF_1            PACKAGE RCH-1            ON UNIT   1022 AT TIME STEP     50, STRESS PERIOD      2
 UBDSV06 SAVING              EVT IN MODEL GWF_1            PACKAGE GWF_1           CONNECTED TO MODEL GWF_1            PACKAGE EVT-1            ON UNIT   1022 AT TIME STEP     50, STRESS PERIOD      2
 UBDSV06 SAVING              SFR IN MODEL GWF_1            PACKAGE GWF_1           CONNECTED TO MODEL GWF_1            PACKAGE SFR-1            ON UNIT   1022 AT TIME STEP     50, STRESS PERIOD      2

              SFR (SFR-1)   PERIOD 2   STEP 50
 BOUNDARY        1  CELL              (1,1,1)   RATE    0.796323    
 BOUNDARY        2  CELL              (1,2,2)   RATE     2.13591    
 BOUNDARY        3  CELL              (1,3,3)   RATE     2.95357    
 BOUNDARY        4  CELL              (1,3,4)   RATE     2.67015    
 BOUNDARY        5  CELL              (1,4,5)   RATE     2.77262    
 BOUNDARY        6  CELL              (1,5,6)   RATE     2.05623    
 BOUNDARY        7  CELL              (1,6,6)   RATE     1.97778    
 BOUNDARY        8  CELL              (1,7,6)   RATE     1.41540    
 BOUNDARY        9  CELL              (1,8,6)   RATE     0.00000    
 BOUNDARY       10  CELL              (1,3,5)   RATE     1.82650    
 BOUNDARY       11  CELL              (1,3,6)   RATE     1.18078    
 BOUNDARY       12  CELL              (1,3,7)   RATE    0.335608    
 BOUNDARY       13  CELL              (1,4,8)   RATE    0.514319    
 BOUNDARY       14  CELL              (1,5,8)   RATE    0.749585    
 BOUNDARY       15  CELL              (1,6,8)   RATE    0.557681    
 BOUNDARY       16  CELL             (1,5,10)   RATE    0.905253    
 BOUNDARY       17  CELL              (1,5,9)   RATE     1.78348    
 BOUNDARY       18  CELL              (1,6,8)   RATE     1.22572    
 BOUNDARY       19  CELL              (1,6,8)   RATE   -0.351693    
 BOUNDARY       20  CELL              (1,7,7)   RATE    0.536189    
 BOUNDARY       21  CELL              (1,8,7)   RATE    0.989136    
 BOUNDARY       22  CELL              (1,8,6)   RATE    6.202583E-02
 BOUNDARY       23  CELL              (1,9,6)   RATE     1.36515    
 BOUNDARY       24  CELL             (1,10,7)   RATE     1.37353    
 BOUNDARY       25  CELL             (1,11,7)   RATE     1.32393    
 BOUNDARY       26  CELL             (1,12,7)   RATE    0.797612    
 BOUNDARY       27  CELL             (1,13,7)   RATE   -0.451476    
 BOUNDARY       28  CELL             (1,14,9)   RATE     2.68036    
 BOUNDARY       29  CELL             (1,13,8)   RATE     3.71648    
 BOUNDARY       30  CELL             (1,13,7)   RATE     2.70254    
 BOUNDARY       31  CELL             (1,13,6)   RATE    0.812301    
 BOUNDARY       32  CELL             (1,13,5)   RATE    -1.86372    
 BOUNDARY       33  CELL             (1,13,4)   RATE    -3.48544    
 BOUNDARY       34  CELL             (1,13,3)   RATE    -3.46422    
 BOUNDARY       35  CELL             (1,13,2)   RATE    -1.37731    
 BOUNDARY       36  CELL             (1,13,1)   RATE    0.173707    

 UBDSV06 SAVING     FLOW-JA-FACE IN MODEL GWF_1            PACKAGE SFR-1           CONNECTED TO MODEL GWF_1            PACKAGE SFR-1            ON UNIT   1019 AT TIME STEP     50, STRESS PERIOD      2
 UBDSV06 SAVING              GWF IN MODEL GWF_1            PACKAGE SFR-1           CONNECTED TO MODEL GWF_1            PACKAGE GWF_1            ON UNIT   1019 AT TIME STEP     50, STRESS PERIOD      2
 UBDSV06 SAVING       EXT-INFLOW IN MODEL GWF_1            PACKAGE SFR-1           CONNECTED TO MODEL GWF_1            PACKAGE SFR-1            ON UNIT   1019 AT TIME STEP     50, STRESS PERIOD      2
 UBDSV06 SAVING         RAINFALL IN MODEL GWF_1            PACKAGE SFR-1           CONNECTED TO MODEL GWF_1            PACKAGE SFR-1            ON UNIT   1019 AT TIME STEP     50, STRESS PERIOD      2
 UBDSV06 SAVING           RUNOFF IN MODEL GWF_1            PACKAGE SFR-1           CONNECTED TO MODEL GWF_1            PACKAGE SFR-1            ON UNIT   1019 AT TIME STEP     50, STRESS PERIOD      2
 UBDSV06 SAVING      EVAPORATION IN MODEL GWF_1            PACKAGE SFR-1           CONNECTED TO MODEL GWF_1            PACKAGE SFR-1            ON UNIT   1019 AT TIME STEP     50, STRESS PERIOD      2
 UBDSV06 SAVING      EXT-OUTFLOW IN MODEL GWF_1            PACKAGE SFR-1           CONNECTED TO MODEL GWF_1            PACKAGE SFR-1            ON UNIT   1019 AT TIME STEP     50, STRESS PERIOD      2
1
  HEAD IN LAYER   1 AT END OF TIME STEP  50 IN STRESS PERIOD    2
  ---------------------------------------------------------------------------

            1           2           3           4           5           6           7           8           9          10
 ........................................................................................................................
   1    1093.       1089.      1.0000E+30  1.0000E+30  1.0000E+30  1.0000E+30  1.0000E+30  1.0000E+30  1.0000E+30  1.0000E+30
   2    1090.       1087.       1081.      1.0000E+30  1.0000E+30   1071.       1070.       1070.      1.0000E+30  1.0000E+30
   3   1.0000E+30   1079.       1078.       1074.       1072.       1070.       1068.       1068.      1.0000E+30  1.0000E+30
   4    1069.       1071.       1070.       1067.       1065.       1064.       1064.       1065.       1066.      1.0000E+30
   5    1065.       1064.       1063.       1062.       1061.       1061.       1060.       1062.       1066.       1068.    
   6    1060.       1058.       1057.       1057.       1056.       1057.       1057.       1059.       1062.       1066.    
   7    1056.       1053.       1052.       1051.       1051.       1052.       1053.       1056.       1057.      1.0000E+30
   8   1.0000E+30   1046.       1046.       1046.       1046.       1047.       1048.       1050.       1050.      1.0000E+30
   9   1.0000E+30   1039.       1039.       1039.       1040.       1041.       1042.       1043.       1044.      1.0000E+30
  10   1.0000E+30   1031.       1032.       1033.       1034.       1035.       1036.       1037.       1039.       1041.    
  11   1.0000E+30   1021.       1023.       1026.       1028.       1030.       1032.       1033.       1035.      1.0000E+30
  12    1000.       1008.       1014.       1019.       1022.       1026.       1028.       1030.       1034.      1.0000E+30
  13    993.2       998.7       1005.       1012.       1017.       1023.       1028.       1033.       1035.      1.0000E+30
  14   1.0000E+30   1003.       1008.       1012.       1018.       1023.       1028.       1034.       1038.      1.0000E+30
  15   1.0000E+30  1.0000E+30   1011.       1014.       1018.       1021.      1.0000E+30  1.0000E+30  1.0000E+30  1.0000E+30

 HEAD WILL BE SAVED ON UNIT 1021 AT END OF TIME STEP   50, STRESS PERIOD    2



 SFR (SFR-1) FLOWS   PERIOD      2   STEP       50
 ----------------------------------------------------------------------------------------------------------------------------------------------------
 REACH  REACH                 EXTERNAL      REACH       REACH       REACH       REACH       REACH       REACH     EXTERNAL      REACH      PERCENT   
  NO.   (LAYER,ROW,COLUMN)     INFLOW      INFLOW     RAINFALL     RUNOFF      LEAKAGE   EVAPORATION   OUTFLOW     OUTFLOW    IN - OUT   DIFFERENCE  
 ----------------------------------------------------------------------------------------------------------------------------------------------------
      1 (1,1,1)                25.00       0.000       0.000       0.000     -0.7963       0.000      -24.20       0.000       0.000       0.000     
      2 (1,2,2)                0.000       24.20       0.000       0.000      -2.136       0.000      -22.07       0.000       0.000       0.000     
      3 (1,3,3)                0.000       22.07       0.000       0.000      -2.954       0.000      -19.11       0.000       0.000       0.000     
      4 (1,3,4)                0.000       19.11       0.000       0.000      -2.670       0.000      -16.44       0.000       0.000       0.000     
      5 (1,4,5)                0.000       8.222       0.000       0.000      -2.773       0.000      -5.449       0.000       0.000       0.000     
      6 (1,5,6)                0.000       5.449       0.000       0.000      -2.056       0.000      -3.393       0.000       0.000       0.000     
      7 (1,6,6)                0.000       3.393       0.000       0.000      -1.978       0.000      -1.415       0.000       0.000       0.000     
      8 (1,7,6)                0.000       1.415       0.000       0.000      -1.415       0.000       0.000       0.000       0.000       0.000     
      9 (1,8,6)                0.000       0.000       0.000       0.000       0.000       0.000       0.000       0.000       0.000       0.000     
     10 (1,3,5)                0.000       8.222       0.000       0.000      -1.826       0.000      -6.396       0.000       0.000       0.000     
     11 (1,3,6)                0.000       6.396       0.000       0.000      -1.181       0.000      -5.215       0.000       0.000       0.000     
     12 (1,3,7)                0.000       5.215       0.000       0.000     -0.3356       0.000      -4.879       0.000       0.000       0.000     
     13 (1,4,8)                0.000       4.879       0.000       0.000     -0.5143       0.000      -4.365       0.000       0.000       0.000     
     14 (1,5,8)                0.000       4.365       0.000       0.000     -0.7496       0.000      -3.615       0.000       0.000       0.000     
     15 (1,6,8)                0.000       3.615       0.000       0.000     -0.5577       0.000      -3.058       0.000       0.000       0.000     
     16 (1,5,10)               10.00       0.000       0.000       0.000     -0.9053       0.000      -9.095       0.000       0.000       0.000     
     17 (1,5,9)                0.000       9.095       0.000       0.000      -1.783       0.000      -7.311       0.000       0.000       0.000     
     18 (1,6,8)                0.000       7.311       0.000       0.000      -1.226       0.000      -6.086       0.000       0.000       0.000     
     19 (1,6,8)                0.000       9.143       0.000       0.000      0.3517       0.000      -9.495       0.000       0.000       0.000     
     20 (1,7,7)                0.000       9.495       0.000       0.000     -0.5362       0.000      -8.959       0.000       0.000       0.000     
     21 (1,8,7)                0.000       8.959       0.000       0.000     -0.9891       0.000      -7.969       0.000       0.000       0.000     
     22 (1,8,6)                0.000       7.969       0.000       0.000     -0.6203E-01   0.000      -7.907       0.000       0.000       0.000     
     23 (1,9,6)                0.000       7.907       0.000       0.000      -1.365       0.000      -6.542       0.000       0.000       0.000     
     24 (1,10,7)               0.000       6.542       0.000       0.000      -1.374       0.000      -5.169       0.000       0.000       0.000     
     25 (1,11,7)               0.000       5.169       0.000       0.000      -1.324       0.000      -3.845       0.000       0.000       0.000     
     26 (1,12,7)               0.000       3.845       0.000       0.000     -0.7976       0.000      -3.047       0.000       0.000       0.000     
     27 (1,13,7)               0.000       3.047       0.000       0.000      0.4515       0.000      -3.499       0.000       0.000       0.000     
     28 (1,14,9)               150.0       0.000       0.000       0.000      -2.680       0.000      -147.3       0.000       0.000       0.000     
     29 (1,13,8)               0.000       147.3       0.000       0.000      -3.716       0.000      -143.6       0.000       0.000       0.000     
     30 (1,13,7)               0.000       143.6       0.000       0.000      -2.703       0.000      -140.9       0.000       0.000       0.000     
     31 (1,13,6)               0.000       144.4       0.000       0.000     -0.8123       0.000      -143.6       0.000       0.000       0.000     
     32 (1,13,5)               0.000       143.6       0.000       0.000       1.864       0.000      -145.5       0.000       0.000       0.000     
     33 (1,13,4)               0.000       145.5       0.000       0.000       3.485       0.000      -148.9       0.000       0.000       0.000     
     34 (1,13,3)               0.000       148.9       0.000       0.000       3.464       0.000      -152.4       0.000       0.000       0.000     
     35 (1,13,2)               0.000       152.4       0.000       0.000       1.377       0.000      -153.8       0.000       0.000       0.000     
     36 (1,13,1)               0.000       153.8       0.000       0.000     -0.1737       0.000       0.000      -153.6       0.000       0.000     


  SFR-1 BUDGET FOR ENTIRE MODEL AT END OF TIME STEP   50, STRESS PERIOD   2
  ------------------------------------------------------------------------------

     CUMULATIVE SFR-1      L**3       RATES FOR THIS TIME STEP      L**3/T
     ------------------                 ------------------------

           IN:                                      IN:
           ---                                      ---
          EXT-INFLOW =583815599999.9999            EXT-INFLOW =         185.0000
            RAINFALL =           0.0000              RAINFALL =           0.0000
              RUNOFF =           0.0000                RUNOFF =           0.0000
                 GWF = 12777690415.7885                   GWF =          10.9938
         EVAPORATION =           0.0000           EVAPORATION =           0.0000
         EXT-OUTFLOW =           0.0000           EXT-OUTFLOW =           0.0000

            TOTAL IN =596593290415.7883              TOTAL IN =         195.9938

          OUT:                                     OUT:
          ----                                     ----
          EXT-INFLOW =           0.0000            EXT-INFLOW =           0.0000
            RAINFALL =           0.0000              RAINFALL =           0.0000
              RUNOFF =           0.0000                RUNOFF =           0.0000
                 GWF =226352568216.4116                   GWF =          42.3899
         EVAPORATION =           0.0000           EVAPORATION =           0.0000
         EXT-OUTFLOW =370240722199.3768           EXT-OUTFLOW =         153.6040

           TOTAL OUT =596593290415.7883             TOTAL OUT =         195.9938

            IN - OUT =           0.0000              IN - OUT =           0.0000

 PERCENT DISCREPANCY =           0.00     PERCENT DISCREPANCY =           0.00



  VOLUME BUDGET FOR ENTIRE MODEL AT END OF TIME STEP   50, STRESS PERIOD   2
  ---------------------------------------------------------------------------------------------------

     CUMULATIVE VOLUME      L**3       RATES FOR THIS TIME STEP      L**3/T          PACKAGE NAME    
     ------------------                 ------------------------                     ----------------

           IN:                                      IN:
           ---                                      ---
              STO-SS =   258189090.0212                STO-SS =           0.0000     STORAGE         
              STO-SY = 30604404446.3969                STO-SY =           0.0000     STORAGE         
                 WEL =           0.0000                   WEL =           0.0000     WEL-1           
                 GHB =   803578097.9119                   GHB =           0.2527     GHB-1           
                 RCH =  5660644500.0000                   RCH =           1.7938     RCH-1           
                 EVT =           0.0000                   EVT =           0.0000     EVT-1           
                 SFR =226352559633.6948                   SFR =          42.3899     SFR-1           

            TOTAL IN =263679375768.0247              TOTAL IN =          44.4363

          OUT:                                     OUT:
          ----                                     ----
              STO-SS =   256983841.1457                STO-SS =       1.0582E-04     STORAGE         
              STO-SY = 30469893835.1202                STO-SY =       9.6915E-03     STORAGE         
                 WEL =157788000000.0000                   WEL =           0.0000     WEL-1           
                 GHB =   591614763.2921                   GHB =           0.1991     GHB-1           
                 RCH =           0.0000                   RCH =           0.0000     RCH-1           
                 EVT = 61795182067.7641                   EVT =          33.2336     EVT-1           
                 SFR = 12777700586.4153                   SFR =          10.9939     SFR-1           

           TOTAL OUT =263679375093.7375             TOTAL OUT =          44.4363

            IN - OUT =         674.2872              IN - OUT =       2.5273E-06

 PERCENT DISCREPANCY =           0.00     PERCENT DISCREPANCY =           0.00




         TIME SUMMARY AT END OF TIME STEP   50 IN STRESS PERIOD    2
                    SECONDS     MINUTES      HOURS       DAYS        YEARS
                    -----------------------------------------------------------
   TIME STEP LENGTH 1.44676E+08 2.41127E+06  40188.      1674.5      4.5845    
 STRESS PERIOD TIME 1.57788E+09 2.62980E+07 4.38300E+05  18262.      50.000    
         TOTAL TIME 3.15576E+09 5.25960E+07 8.76600E+05  36525.      100.00    
